155

 C        -6.4625926535        2.1630130765        0.1027404892
 C        -5.6330958416        1.0604400729        0.8788881932
 C        -6.2184697578        0.6245596448        2.3145509548
 C        -5.0694988775        0.5737191664        3.4288812783
 C        -5.3952249501        0.6968578607        4.8953639960
 C        -7.4950666467        1.3937932714        2.6058028350
 C        -6.5973422880       -0.9195919201        2.1650542847
 O        -4.6058460150        0.5145045784        0.3463445845
 O        -3.9769241202        0.2966260619        3.0938914129
 C        -4.4392511485        0.0405015151        5.8918458482
 C        -3.3042166026        1.0069994383        6.2945380750
 C        -2.1764349979        0.5038927456        7.2646969489
 C        -1.3232495363       -0.6219218904        6.4462803949
 C        -1.4563294568       -0.7734356948        4.9349804696
 O        -3.2800653060        2.0628599506        5.7280869615
 O        -0.5479037767       -1.2994673651        7.1194423536
 C        -1.1529519642        1.6622965496        7.5963994937
 C        -2.7186922353       -0.0771408698        8.4864647527
 C        -0.2417454483       -1.0407168407        4.0961259951
 C        -0.6548350491       -1.5717411341        2.7618284237
 C         0.3575100556       -1.5679496262        1.4322740953
 C         0.1189201318       -0.3515915003        0.5285403849
 C         1.1558573643        0.4083035794       -0.3228926169
 C         1.8216932962       -1.4699053240        2.0726823251
 C         0.2486497782       -2.8161736246        0.5585994116
 O        -1.7847529440       -2.0054405016        2.5065508133
 O        -1.0399315292        0.0345129214        0.3116434532
 C         0.9467705535        1.8996387312       -0.0750418568
 C         1.1809644766        2.2415684581        1.3317590767
 C         1.9066553096        3.5480811178        1.9097522540
 C         3.0632598773        4.0150992888        1.0156134279
 C         3.7530155066        5.3339918933        1.1239550618
 O         0.8996173627        1.4975158316        2.2629072516
 O         3.5124115465        3.1161436116        0.2545089230
 C         0.7403761692        4.5282645394        1.9074825951
 C         2.3436297552        3.2852746421        3.3626976910
 C         4.6040927200        5.6343490513       -0.0778781728
 C         3.8361884591        5.7507233778       -1.4872908978
 C         4.6158610907        5.8832788328       -2.7988357647
 C         5.3002383392        4.4664135457       -3.1030391572
 C         4.4285616288        3.2622171850       -2.9110585842
 C         3.5299733256        6.3439635646       -3.8252106955
 C         5.7081724103        6.9464122627       -2.6820555759
 O         2.6425918501        6.0497002712       -1.4713485523
 O         6.4091701635        4.4288561767       -3.6143536704
 C         4.7969828587        1.8974602444       -3.5847055203
 C         3.8746671529        0.8055030014       -2.9674798596
 C         4.6098213838       -0.4524856162       -2.4418740254
 C         3.5718329615       -1.6602134238       -2.5257788589
 C         3.1539032836       -2.1717726716       -3.8710527997
 O         2.6679814988        0.9375342062       -2.9921943216
 O         3.1967162239       -2.1462193920       -1.4753280493
 C         5.8436257601       -0.8083658746       -3.2893886157
 C         5.0914630934       -0.2114085585       -0.9777789147
 C         2.5983770636       -3.5803475776       -3.7455235928
 C         1.8460815444       -3.8425059600       -5.1429520590
 C         0.7463246586       -4.9361567397       -5.2637460682
 C        -0.3092320707       -4.9923834447       -4.0676711256
 C        -1.7094838909       -5.6197408416       -4.3861075042
 C         0.0618957354       -4.7550955419       -6.6604473825
 C         1.5085552169       -6.3822326708       -5.3577791034
 O         1.9437143199       -3.1017270824       -6.0964182130
 O        -0.1021898903       -4.5182341402       -2.9791090962
 C        -2.6642934417       -5.6195055984       -3.1102717079
 C        -3.6796586490       -4.3846913158       -3.0505764295
 C        -4.5912226284       -4.2862972782       -1.7724705954
 C        -4.3900643999       -2.9051139358       -1.2365053780
 C        -4.8013281108       -1.6614794539       -1.9474933121
 O        -3.8223477000       -3.5713378071       -3.8966906176
 O        -3.9778371449       -2.6803179730       -0.1079104598
 C        -6.0445369120       -4.4269337853       -2.2475047200
 C        -4.2680290866       -5.2854590525       -0.5909770146
 H        -6.3128510359        3.1638298118        0.5966131999
 H        -6.1082496479        2.4010265695       -0.8924913818
 H        -7.5212404487        2.1233539054       -0.0540192294
 H        -5.6301723699        1.7128033469        5.1965719205
 H        -6.3762244727        0.2871086237        4.9555632273
 H        -7.5090204353        2.4451003070        2.4291583043
 H        -7.7894399647        1.2917890593        3.6643088215
 H        -8.3248613357        0.8855467167        2.0051261213
 H        -6.7263901509       -1.2921978525        3.1968575108
 H        -7.5234183191       -1.1290517262        1.6667381691
 H        -5.8105719146       -1.5199253565        1.7149259168
 H        -4.9885591273       -0.1791262899        6.8387592470
 H        -4.1202467270       -0.8885452968        5.4429215921
 H        -2.1911551934       -1.5639767715        4.7725935421
 H        -1.9224519272        0.2442708992        4.7275546585
 H        -1.6487992403        2.4485973164        8.1321412159
 H        -0.7650123896        1.9198291115        6.5815589837
 H        -0.1794301485        1.2181801714        8.0947006175
 H        -3.6300930531       -0.6505328008        8.3073379517
 H        -2.0541844102       -0.7434616340        9.0020190540
 H        -2.7065390133        0.6875027279        9.2665280585
 H         0.3283777449       -1.8274494226        4.6052769537
 H         0.4081729593       -0.2309567035        3.9867567390
 H         2.2056599157        0.1477382592       -0.1505950076
 H         0.8629984178        0.1707649299       -1.3511319286
 H         2.6123664834       -1.7794730559        1.3877081133
 H         1.7669373700       -2.0802273611        2.9831611401
 H         2.1098298195       -0.3946841047        2.2228427593
 H         0.8671205428       -2.6630900976       -0.2983133397
 H         0.5731659052       -3.6444774388        1.1504789193
 H        -0.8266892620       -2.8414646853        0.2559414456
 H         1.5181164393        2.4484578009       -0.7980897789
 H        -0.0897745962        1.9498713342       -0.4097786076
 H         3.0639021104        6.1418730545        1.3075162254
 H         4.4299501422        5.3259854608        2.0101947486
 H         0.4083563350        4.6526461132        0.9212738271
 H         1.0131023746        5.4091524506        2.4308486834
 H        -0.0282726551        4.1296460973        2.5984533473
 H         2.9426616630        4.1598304389        3.6914365979
 H         1.4282915772        3.3995729384        3.9979398778
 H         2.7719570573        2.3217044186        3.6636490539
 H         5.3961573710        4.8536555945       -0.1357610587
 H         5.0752871886        6.6125861747        0.1629786609
 H         4.3435678231        3.0022667734       -1.8436810970
 H         3.3931153930        3.6672991817       -3.1674302484
 H         3.2177107444        7.3667642467       -3.4673382308
 H         2.7385413158        5.7310851780       -3.9821961057
 H         4.0018636604        6.5883823103       -4.7751632709
 H         6.5188172446        6.5251273391       -2.1004726348
 H         6.2174864126        7.0045967362       -3.6303627790
 H         5.3598685037        7.8948391124       -2.3542812466
 H         4.6220380149        1.9735107804       -4.6720921723
 H         5.8339956256        1.6830525390       -3.4678572617
 H         2.4553972420       -1.5225476886       -4.3158195777
 H         4.0401779401       -2.0190706868       -4.5121496246
 H         6.3249816933       -1.7400933704       -2.7248659738
 H         6.6879420405       -0.0397842618       -3.1819136573
 H         5.6662503090       -0.9879086459       -4.3684568827
 H         5.6439631240       -1.0608346258       -0.6684714119
 H         5.7454161991        0.6592027971       -0.8733427001
 H         4.2445252750       -0.1032652477       -0.3849079719
 H         1.9918140069       -3.6983646253       -2.9290580268
 H         3.3507291227       -4.2762386136       -3.7355737549
 H        -2.2018700939       -5.2868539534       -5.2554909329
 H        -1.4963847654       -6.6499353989       -4.5778461099
 H         0.7318536447       -5.1477120045       -7.4280534236
 H        -0.2276065267       -3.7505389561       -6.7849687879
 H        -0.8490508042       -5.3076850962       -6.8211590976
 H         2.1225362417       -6.3963333087       -6.2525364794
 H         1.8645560092       -6.5733650784       -4.3578659255
 H         0.7703988989       -7.1559290472       -5.5644195558
 H        -3.3635583984       -6.4784862607       -3.1700962307
 H        -2.0498726494       -5.6865267191       -2.1911551105
 H        -4.3736504793       -0.6856814337       -1.5996463707
 H        -4.6181838612       -1.8077367372       -3.0264100538
 H        -5.8376687259       -1.5401484837       -1.9514518000
 H        -6.3094126810       -5.4469486576       -2.3752812376
 H        -6.2491241067       -3.8586349044       -3.1807805196
 H        -6.7225653149       -4.1228835280       -1.3814508594
 H        -4.4968274409       -6.2918970070       -0.9863839435
 H        -3.2103269381       -5.1778816485       -0.3517945745
 H        -4.8679930543       -5.1492106328        0.3672993610
 Na       -3.0099917231       -0.8041927666        1.1059417375
