155

 C        -6.2274755036        2.3568536638        1.3125529051
 C        -5.6076439226        0.9444912339        1.5231129622
 C        -6.4666354590       -0.0994788048        2.3285247271
 C        -5.5436417325       -0.7061596683        3.5838981737
 C        -5.9470340159       -0.2247657947        5.0743544525
 C        -7.8534103480        0.3611369845        2.8066880934
 C        -6.7138926364       -1.3921692954        1.4156441364
 O        -4.5153162830        0.7168496332        1.1146141518
 O        -4.5610251081       -1.3899324653        3.3872223993
 C        -4.6966960770       -0.2894278500        5.8655871604
 C        -3.4851495113        0.6136268148        5.4730256217
 C        -2.2203763573        0.5048253270        6.4513042092
 C        -1.3372682655       -0.7582564157        5.7223822662
 C        -0.7545110928       -0.3968424992        4.3442467535
 O        -3.4243639907        1.4533407391        4.5796015890
 O        -1.1771680486       -1.8015856041        6.2914008772
 C        -1.3145006314        1.7825916938        6.5115050402
 C        -2.5888918180        0.0268841083        7.9674781510
 C         0.0953861100       -1.4995297536        3.8082550700
 C        -0.3975378450       -1.9998692628        2.4376011996
 C         0.5398705200       -1.7200486860        1.2086619598
 C         0.2778659002       -0.1819956650        0.8206600867
 C         1.3159156921        0.7201657651        0.3197180830
 C         2.0038573567       -1.8314767377        1.5336468704
 C         0.2002696322       -2.6542718576       -0.0752496558
 O        -1.5037584359       -2.4929587555        2.3205989006
 O        -0.8999236134        0.1162773273        0.8767218041
 C         0.9612704920        2.2432841602        0.2839942898
 C         1.0935677372        2.9115619756        1.6608699491
 C         1.2334531975        4.5259271564        1.6491459174
 C         2.6680164169        4.8197338414        1.0914252622
 C         3.1585612117        6.2826117919        1.0818174048
 O         1.4581505476        2.3152676783        2.6365838864
 O         3.4237690992        3.8957249554        0.9553537272
 C         0.0973434364        5.0794077553        0.8454763117
 C         1.2202523929        4.9873234778        3.1505862219
 C         3.9923573429        6.5517141422       -0.1889998734
 C         3.4087193590        5.9175810301       -1.3869078462
 C         4.2750529981        5.9073453288       -2.6635726868
 C         5.0428871308        4.5147903318       -2.7047592057
 C         4.2474538576        3.2239432020       -2.7570498504
 C         3.3604349617        5.8751119041       -3.9346899615
 C         5.2590093697        7.0085630432       -2.7673782510
 O         2.2740276467        5.5006498739       -1.3899531382
 O         6.2280348654        4.3859355221       -2.9019268738
 C         5.2019837042        2.0833770945       -2.3070402768
 C         4.3535887739        0.7585351532       -2.4007332744
 C         5.0171629773       -0.7128119943       -2.2374857168
 C         3.7850344117       -1.6723158582       -2.3328165605
 C         3.3242903175       -2.2107970619       -3.6729846710
 O         3.1924013732        0.7581799911       -2.8165964699
 O         3.3269384843       -2.0801625986       -1.2680272885
 C         6.1007350837       -1.0732991030       -3.3040939497
 C         5.6779970984       -0.9660869961       -0.8471721966
 C         2.1269701181       -3.1549208229       -3.5297778130
 C         1.6296553049       -3.7756860446       -4.8017714102
 C         0.9596242206       -5.2381448071       -4.8747764485
 C        -0.3630903813       -4.9880592858       -3.9395918278
 C        -1.6917514179       -5.5983826836       -4.5250190840
 C         0.5887409766       -5.6678410048       -6.2723735504
 C         1.7216224293       -6.4076292552       -4.1954368333
 O         1.8928836014       -3.1914523484       -5.8301343584
 O        -0.4104832922       -4.4044525955       -2.8706084290
 C        -2.9186382130       -5.5244111323       -3.6251734527
 C        -3.4037892105       -4.0744913565       -3.4279176003
 C        -4.3818175266       -3.6955658580       -2.3050846947
 C        -3.7167550322       -2.7475009482       -1.2933637438
 C        -2.8020353320       -1.6402630388       -2.0020867517
 O        -2.8929965781       -3.2546443306       -4.2096860688
 O        -3.9362778210       -2.7956403886       -0.1010220653
 C        -5.5553854363       -2.8396537260       -3.0219622059
 C        -5.0559694729       -4.8080634522       -1.5011642031
 H        -6.4482466537        2.8147462861        2.2464592281
 H        -5.6333450793        3.0548197888        0.7553698540
 H        -7.2130770464        2.3756940802        0.8436345852
 H        -6.2367714424        0.8207908447        4.8869006907
 H        -6.7905065692       -0.8275721404        5.4349814566
 H        -8.0031782222        1.3832701727        3.2311458641
 H        -8.1560019182       -0.3223450884        3.5830621245
 H        -8.5049454018        0.2168022867        2.0122005946
 H        -7.2777875559       -2.1220290103        1.9955654325
 H        -7.3188031847       -1.1554991290        0.4975783484
 H        -5.8120588218       -1.8323887763        1.0732883766
 H        -4.7329184403        0.0347256758        6.9261949880
 H        -4.2120421061       -1.3692857307        5.8773016975
 H        -1.6258514489       -0.1589845976        3.7457731495
 H        -0.2632466076        0.6052324693        4.4189723889
 H        -1.6723318561        2.3300211256        7.4126096577
 H        -1.3059053687        2.4521800014        5.6862599662
 H        -0.3721102035        1.5785504924        6.9035143325
 H        -2.8977661753       -1.0121676426        8.0679183207
 H        -1.6656098371        0.0965160010        8.5388675442
 H        -3.4146609732        0.6421564520        8.3732928945
 H        -0.0622641932       -2.3501233758        4.5455597972
 H         1.2033346845       -1.2509130508        3.8249979877
 H         2.2498545458        0.7286628113        0.8686732846
 H         1.6066579977        0.4099741702       -0.7165432187
 H         2.7761149033       -1.7376832173        0.7477917408
 H         2.2445199492       -2.7364320940        2.1526917263
 H         2.2198513827       -0.9962219496        2.1728917347
 H         0.9346441133       -2.2892437419       -0.8774139878
 H         0.4233993528       -3.7187649588        0.1045270546
 H        -0.8274764897       -2.5621207833       -0.2119437560
 H         1.6090393624        2.6872070035       -0.4796556218
 H        -0.1039926492        2.4756509399        0.0603978092
 H         2.3445349190        7.0238333890        1.1238058243
 H         3.8091211056        6.4959740330        1.9375337628
 H         0.1498687521        4.5439965687       -0.1738387934
 H         0.2410190057        6.1022263655        0.3947320291
 H        -0.8628881810        5.1715202267        1.3493373107
 H         1.3245888782        6.0727006861        3.3363832015
 H         0.3651335786        4.6834257069        3.6633004302
 H         2.0898517714        4.5924145460        3.6059964052
 H         5.0064679140        6.2728793351        0.0138278093
 H         4.0050150857        7.6524732289       -0.3253540760
 H         3.3790467478        3.2171800675       -2.1231673907
 H         3.9918254972        3.0389745076       -3.7687180897
 H         2.7793203363        6.7775563527       -4.0740531885
 H         2.6571769048        4.9303231528       -3.9499643647
 H         4.0553151210        5.7429513252       -4.8132837410
 H         5.7721070881        7.2718559759       -1.8033411509
 H         6.0941690567        6.8716556957       -3.4883637836
 H         4.7940733244        7.9580047538       -3.1338685515
 H         6.1238167878        2.1033021164       -3.0091441652
 H         5.5956496989        2.2502139995       -1.3212810746
 H         2.9210629527       -1.3162013190       -4.1153890215
 H         4.1752035126       -2.7283114225       -4.2781988989
 H         6.4557367022       -1.9878027509       -3.0966471938
 H         6.8547999928       -0.3515916891       -3.4449071509
 H         5.6506971763       -1.0012341747       -4.2996184650
 H         5.9234765103       -1.9991783164       -0.7324543671
 H         6.6126550021       -0.4404768517       -0.9052779142
 H         5.0116883511       -0.7062501788        0.0135645012
 H         1.2329592804       -2.6549749126       -2.9764589716
 H         2.4345520992       -4.0904431198       -2.9494058763
 H        -1.8386034916       -5.0711585534       -5.5073787069
 H        -1.3813091054       -6.6568166787       -4.7749858469
 H         1.3890104373       -5.3254539768       -6.9838965793
 H        -0.3034665122       -5.0503510045       -6.5895118757
 H         0.5103249388       -6.7596117515       -6.4624939496
 H         2.3186467241       -6.8480930904       -4.9667757075
 H         2.3605998547       -6.1130972162       -3.3972491549
 H         1.0305818849       -7.2447470868       -4.0236453379
 H        -3.7283347004       -6.1141353495       -4.0177864152
 H        -2.6481377892       -5.9523662311       -2.6561536496
 H        -2.4388130723       -0.7454849036       -1.6041932501
 H        -1.9763787419       -2.1208231444       -2.5435653750
 H        -3.3961344530       -1.3183215429       -2.9350648349
 H        -6.1735118503       -3.3162502099       -3.8333863568
 H        -5.2752357311       -1.9308406157       -3.4790982129
 H        -6.2534048686       -2.5474610154       -2.2604404572
 H        -5.6497946326       -5.4208614578       -2.1028147042
 H        -4.2702430823       -5.3145522523       -0.9471370909
 H        -5.6269466799       -4.3626396685       -0.7712881717
 Na       -2.9986896965       -1.2488660325        1.6280712507
