155

 C        -5.7755184732        2.0583146677        1.8166942854
 C        -5.1772623318        0.6474756529        1.8096904968
 C        -6.1345516802       -0.4873661607        2.2997055768
 C        -5.2263869586       -1.3922220249        3.2907545077
 C        -5.5859676969       -1.6065750509        4.7606590065
 C        -7.5676188520       -0.0592577245        3.0354054123
 C        -6.4168929020       -1.3441684113        0.9828637641
 O        -4.0999067965        0.4588606005        1.3619214523
 O        -4.3286013564       -2.0601011538        2.7901733176
 C        -4.2991914863       -1.4416742832        5.5997826294
 C        -3.7186331987        0.1517261815        5.5077995207
 C        -2.3393326451        0.5235708951        6.0679327593
 C        -1.2480274715       -0.6712298188        6.1026834570
 C         0.1867359960       -0.5542369127        5.4344504998
 O        -4.3825695871        0.9954428256        5.0139038853
 O        -1.4886285635       -1.7807242338        6.5787798305
 C        -1.9216023422        1.8330840489        5.2801127721
 C        -2.4065599832        0.9750630159        7.6117131906
 C         0.4957686161       -1.8378855049        4.5511889591
 C        -0.1226409781       -1.6843447938        3.1417805924
 C         0.6424198440       -1.7344448085        1.7670847826
 C         0.2548589896       -0.4251340552        1.0310078207
 C         1.2602328452        0.7099401900        0.9363648224
 C         2.1270389498       -1.9767880687        1.9916310325
 C         0.0184824942       -2.9474813217        1.0101117091
 O        -1.3127010250       -1.5081284474        3.2878832864
 O        -0.8793275717       -0.3076095680        0.6092371877
 C         0.7901242866        2.1316887284        0.6105112439
 C         0.4565182338        2.9568242844        1.9373290461
 C         0.4578036510        4.4366372557        1.6210282729
 C         1.8041989872        4.9909585946        0.8180187523
 C         2.0015095353        6.4862805014        0.6478799295
 O         0.3319569719        2.3411555701        3.0118134481
 O         2.7098479148        4.1717387645        0.5935630083
 C        -0.7419376487        4.8468018286        0.7018985343
 C         0.3997351559        5.3449173952        2.9675427166
 C         3.1488520789        6.7209405865       -0.2655698304
 C         2.8763632663        6.2659888291       -1.6553601279
 C         4.1940206102        5.8963368727       -2.5698213127
 C         4.9709923048        4.5040417195       -2.0790090231
 C         4.2453843405        3.1079740553       -2.4429594698
 C         3.5162866404        5.8182722740       -3.9899423511
 C         5.1615140382        7.0879792214       -2.4222925152
 O         1.8080307492        6.3417809950       -2.1960896417
 O         6.0528959797        4.5720764003       -1.5748805334
 C         5.2259003371        1.9556259011       -2.1959904061
 C         4.5025149264        0.5972119723       -2.0542384732
 C         5.2137380419       -0.6644855578       -2.6083540274
 C         4.2491315878       -1.8333267761       -2.2036898809
 C         3.1315842236       -2.1690632794       -3.2499566809
 O         3.3334160393        0.6621027185       -1.7298727994
 O         4.4760102290       -2.4682539933       -1.1806689471
 C         5.4599929996       -0.4787940998       -4.1677876765
 C         6.6126306110       -0.7741251129       -1.8168687376
 C         2.6867482051       -3.6204782049       -3.0849999728
 C         2.0248291697       -4.1532998461       -4.4177636175
 C         1.0662791533       -5.5105359644       -4.2662446143
 C        -0.3312210368       -4.8706106725       -3.8397059097
 C        -1.5898501310       -5.4400507204       -4.5077380722
 C         1.0548810358       -6.2020317842       -5.6585049567
 C         1.5973934970       -6.4693595778       -3.1207143029
 O         2.1859787050       -3.5402791742       -5.4079635734
 O        -0.4025879500       -4.0071181432       -3.0311427795
 C        -2.7986314126       -5.0454634050       -3.7187607374
 C        -3.3644849920       -3.7738619155       -4.3543546363
 C        -4.1935220645       -2.7969841146       -3.4274384755
 C        -3.3909562240       -2.2104069671       -2.3312119462
 C        -2.2135015569       -1.2504679513       -2.5905166732
 O        -3.3280842275       -3.4951875981       -5.5087064441
 O        -3.5686900594       -2.4867332710       -1.1376068621
 C        -4.7349119868       -1.5206906252       -4.1398083487
 C        -5.3210191507       -3.6575566678       -2.7944563048
 H        -5.9056847995        2.3174022667        2.8488673967
 H        -5.2202790864        2.8576816041        1.3500243070
 H        -6.7878321059        2.0352441075        1.3701577990
 H        -6.3642809186       -0.8831042451        4.9853833886
 H        -5.9872750246       -2.6338179139        4.9409307972
 H        -7.3158273485        0.5378204551        3.8689849045
 H        -8.0493358144       -0.9699329382        3.3233974050
 H        -8.2670866123        0.4939765140        2.4359574494
 H        -6.9386629883       -2.2435559644        1.2260380524
 H        -7.0162912281       -0.7573010499        0.2884183344
 H        -5.4868610813       -1.6942427209        0.5029098529
 H        -4.5320462180       -1.6728548711        6.5983621824
 H        -3.5540168746       -2.0794598056        5.2804894353
 H         0.3653747281        0.3470283792        4.7959788573
 H         0.8587349730       -0.6845855973        6.2586178790
 H        -2.7465963837        2.5064620454        5.2609971139
 H        -1.7099058924        1.6898990498        4.1843964099
 H        -1.0760430929        2.4184493796        5.6964337045
 H        -2.7929378687        0.1994992954        8.2212738108
 H        -1.3411253831        1.1129216263        7.9358648457
 H        -3.0558239682        1.8455410022        7.7233295579
 H         0.1755877800       -2.7327593584        4.9338223685
 H         1.5861892175       -1.7934902453        4.4813505064
 H         1.8121243702        0.6529312216        1.8760522039
 H         2.0578398400        0.4218565638        0.2426680323
 H         2.5854294437       -2.1717719099        1.0272613278
 H         2.3091722040       -2.8003440067        2.5611761082
 H         2.7065712449       -1.2986209225        2.6092466402
 H         0.2802182322       -2.9317116735       -0.0033879849
 H         0.3923651367       -3.7261531999        1.6135734144
 H        -1.1259956523       -2.8309247810        1.0075453065
 H         1.4142586279        2.7874480048        0.0085262573
 H        -0.0664893859        2.0469750378       -0.0482565838
 H         1.0932046803        6.8506389649        0.1231769862
 H         2.0745571447        6.9297749591        1.6344784646
 H        -0.5805851530        5.0031235841       -0.3243739655
 H        -1.1706250156        5.8087930732        0.9922252214
 H        -1.5356780886        4.0468362605        0.7447003670
 H         0.2824086467        6.3735616280        2.7380026335
 H        -0.5072953232        5.1066261090        3.6018752418
 H         1.4178363355        5.3062296334        3.4899921129
 H         4.0588477138        6.3432799109        0.1158172688
 H         3.3596278887        7.8197695944       -0.3485754451
 H         3.3751615381        2.9543984199       -1.6809248232
 H         3.7938776306        3.1062818399       -3.4017339536
 H         2.7691073113        6.5995512043       -4.2023575104
 H         2.9788429379        4.9403574821       -3.9878056151
 H         4.2802970054        5.7620609266       -4.7061053023
 H         5.7937828927        7.0423886127       -1.5609681260
 H         5.7073787901        7.2593771922       -3.3601287258
 H         4.5957157605        8.0200486706       -2.2729239786
 H         5.8980777661        1.7721614396       -3.0601941620
 H         5.8292826790        2.1215839469       -1.3272983554
 H         2.4217720195       -1.4498661684       -2.9306673572
 H         3.3646757776       -1.8293364722       -4.1761937816
 H         5.6806445367       -1.5061826552       -4.5976594699
 H         6.2711042455        0.2259627080       -4.3831895678
 H         4.6320720012       -0.0630200020       -4.6911376269
 H         7.2700794154       -1.5693350000       -2.3497431202
 H         7.1901930652        0.1702716698       -1.7597992843
 H         6.3728022498       -1.0634712198       -0.7849307562
 H         2.0799948949       -3.7828549871       -2.1947127857
 H         3.5072834954       -4.2350163227       -2.9423875408
 H        -1.5970130378       -4.9291914603       -5.4410296159
 H        -1.4426578160       -6.4859683916       -4.6538163858
 H         1.7881382100       -6.9832900051       -5.6460519696
 H         1.4952079709       -5.4862439944       -6.3265023599
 H         0.0748999976       -6.5925807112       -5.9626440085
 H         2.6546327526       -6.6421393174       -2.9022257719
 H         1.2640727198       -6.2199456916       -2.1076549567
 H         1.2290270992       -7.4390274792       -3.3603518736
 H        -3.5723624473       -5.8211514518       -3.8417402175
 H        -2.6866862984       -4.8966060617       -2.6212390463
 H        -1.5514931486       -1.0305904577       -1.7920230756
 H        -1.5799254183       -1.5381371774       -3.4099544651
 H        -2.6789753332       -0.3167361632       -2.9032609366
 H        -5.4407021850       -1.6966750190       -4.8847078718
 H        -4.0019187692       -0.9763271299       -4.7498922415
 H        -5.1837599902       -0.7893217201       -3.5423935722
 H        -5.6227352070       -4.4770576623       -3.4509648538
 H        -5.1377519037       -4.0775275083       -1.8528373717
 H        -6.2523337540       -3.0498612414       -2.6159529801
 Na       -2.8629604588       -1.5050175305        1.2220724073
