155

 C        -5.9325739762        1.5203441224        1.9561085773
 C        -5.1912509666        0.2216222916        1.6186846316
 C        -5.8954482818       -1.2097400542        1.8480089740
 C        -5.0442905467       -2.0446867974        2.8247574181
 C        -5.3856705645       -2.3766010118        4.4175586257
 C        -7.3478394790       -0.9906987255        2.3349022364
 C        -6.0258637316       -1.8804798578        0.4326542904
 O        -4.1364125171        0.3349412336        1.1141806697
 O        -3.9734681351       -2.4726168254        2.2987836013
 C        -4.0873273605       -2.0960605002        5.1982168096
 C        -3.7957523778       -0.5239178192        5.2382418883
 C        -2.8795793841       -0.1817843156        6.4100686937
 C        -1.4838242029       -0.7933921415        5.9932682888
 C        -0.7940689415       -0.0920293417        4.7996087392
 O        -4.3418085248        0.3463707175        4.6871668114
 O        -1.1691394608       -1.8589713747        6.4777349734
 C        -2.7560184247        1.3577536965        6.5591075015
 C        -3.3836188712       -0.6728141762        7.8754287245
 C         0.3769812708       -0.8582311870        4.2046840972
 C        -0.0012669039       -1.4783297496        2.7944269973
 C         1.0293208932       -1.5687683701        1.5612079523
 C         0.7711396586       -0.2314983238        0.7385875303
 C         1.8493992507        0.7852282533        0.3061914852
 C         2.4696315730       -1.6541773070        2.0161016093
 C         0.5832328688       -2.7749826978        0.6319568715
 O        -1.1831316685       -1.7514182778        2.5252578196
 O        -0.3011692439       -0.1346542172        0.1646744781
 C         1.2891927541        2.1624931728        0.2586448057
 C         0.1990733261        2.5568878478        1.2630807526
 C        -0.3886912365        3.9434332199        0.9797925767
 C         0.7921278062        5.0775591552        0.9236132040
 C         0.5228367978        6.4305230317        0.3010963154
 O        -0.1225494491        2.0111834840        2.2764641696
 O         1.8145287051        4.8507916889        1.5245719867
 C        -1.1308131217        3.8264417583       -0.3722317639
 C        -1.3898727600        4.4136038849        2.0223605135
 C         1.6553594605        7.0037720559       -0.6913295982
 C         2.4456691212        5.8416653889       -1.4398504375
 C         3.8759948088        6.0417273204       -1.9811166048
 C         4.7654464708        4.7217078499       -1.6348345551
 C         4.2645671827        3.3705012406       -1.9449715500
 C         3.7008214107        6.1720155455       -3.5448920698
 C         4.6014692689        7.2647844849       -1.4155467273
 O         1.7805922167        4.7814966242       -1.5736517784
 O         5.8493075165        4.8303426357       -1.0646592080
 C         5.2787879109        2.3343873485       -2.1574726003
 C         4.5589835237        0.9694104254       -2.3709852068
 C         5.3963798581       -0.4175877292       -2.5594430861
 C         4.3943284457       -1.6448055751       -2.2747999448
 C         3.5336364147       -2.2607035000       -3.3580523471
 O         3.3274227587        0.8576315638       -2.3235626743
 O         4.2709905723       -2.0566415434       -1.1411133966
 C         5.9481986446       -0.5614598403       -3.9559377179
 C         6.5593989947       -0.4000287635       -1.5601607957
 C         2.4361571101       -3.2773402303       -2.8504484184
 C         1.9996133352       -4.4521185010       -3.7953700787
 C         1.2753798995       -5.6862074671       -3.0163233661
 C        -0.2079838748       -5.0369858018       -2.7858706817
 C        -1.1650494031       -4.9107197103       -3.9847526917
 C         1.1998235412       -6.9731338600       -3.9329561623
 C         1.9188369974       -6.1508875919       -1.6686257317
 O         2.0360093704       -4.4100397746       -5.0423848123
 O        -0.3663819785       -4.5797442679       -1.6719043006
 C        -2.4220170305       -4.0200176491       -3.5598327342
 C        -2.4386197101       -2.6768295343       -4.2057478597
 C        -3.6709521447       -1.6821699552       -3.7613783251
 C        -3.1030060520       -1.0580385350       -2.4752357520
 C        -2.5148378002        0.3253349619       -2.3343037181
 O        -1.5050265059       -2.2264609973       -4.7889808827
 O        -3.0346167044       -1.7543936967       -1.4516226394
 C        -3.8873096021       -0.7581904443       -4.9029772821
 C        -4.9286669996       -2.4212781161       -3.3367621961
 H        -6.9636739327        1.3850876573        2.2872829798
 H        -5.3752753618        2.1214553468        2.6650211971
 H        -6.0352879411        2.0999086108        0.9902891889
 H        -6.1922201621       -1.8381556159        4.8617509628
 H        -5.5340008500       -3.4816530010        4.3402488044
 H        -7.4685390319       -0.3699135911        3.1817019744
 H        -7.8366458114       -1.9064783677        2.7124049412
 H        -7.9359169675       -0.5640704634        1.5012731007
 H        -6.6888658415       -2.7505886903        0.4516990970
 H        -6.3629330339       -1.1478141121       -0.3373464087
 H        -5.0977376060       -2.3003130270        0.1923250559
 H        -4.0193453119       -2.5472560210        6.1265728674
 H        -3.3989271932       -2.5688157740        4.5397665562
 H        -1.5201133328        0.1688489892        3.9949977724
 H        -0.4480786946        0.8912126675        5.2394112831
 H        -3.5579798538        1.7036875440        7.2035112321
 H        -2.7202895360        1.9050409434        5.6366585396
 H        -1.8522547395        1.4791397157        7.0621306906
 H        -2.7579207104       -1.5368653775        8.0216476451
 H        -3.1606268530        0.0867683121        8.6944155021
 H        -4.4491763248       -0.8559388346        7.7301939616
 H         0.5935093705       -1.6096413803        4.8664461488
 H         1.3401509230       -0.2684371063        4.1363214543
 H         2.6862510954        0.6348274098        1.0063128156
 H         2.2260261202        0.3929922015       -0.6786524737
 H         3.1046225023       -1.5403688378        1.1210625390
 H         2.5937573873       -2.5467352130        2.6009118663
 H         2.7573513746       -0.7966938974        2.7081899361
 H         1.0238929286       -2.5884370613       -0.3913300184
 H         1.1835696731       -3.6409811590        1.1005244906
 H        -0.4199881428       -2.9830136094        0.4730153222
 H         2.0716149591        2.8419404029        0.5558674391
 H         0.8817230789        2.2574339107       -0.7580289535
 H        -0.5189040386        6.4651894419       -0.1079138734
 H         0.5658405522        7.1279380982        1.1311787269
 H        -0.4794212122        3.8019676026       -1.2267005571
 H        -1.8553830941        4.5819715432       -0.5090993674
 H        -1.8131361539        2.9765705027       -0.2275837946
 H        -2.3533246457        4.5368069148        1.5791771161
 H        -1.5417844042        3.5892744670        2.7062552881
 H        -1.0739108329        5.3216763609        2.4638681309
 H         2.3398151394        7.4764980716        0.0051259570
 H         1.2085711292        7.7569476354       -1.3368528921
 H         3.5670546248        3.1167425483       -1.0630773889
 H         3.6255213233        3.5309822037       -2.7833972995
 H         3.0523382584        6.9313407585       -3.9215500279
 H         3.4480490403        5.1200633549       -4.0417442811
 H         4.7307596166        6.3424689618       -3.9728423861
 H         4.8186426231        7.1419081825       -0.3853358665
 H         5.5908525185        7.2803533530       -1.9434473923
 H         3.9641029495        8.1563893121       -1.5972417843
 H         5.9640316150        2.4867267715       -3.0295014118
 H         5.9808230445        2.2476707064       -1.2951762683
 H         3.1312297065       -1.3628328008       -3.9458985117
 H         4.1414522872       -2.7617565740       -4.0772214535
 H         6.6784198474       -1.2809137041       -3.9257738458
 H         6.3275388541        0.3284897670       -4.4398712742
 H         5.0659922148       -0.9182610242       -4.5422050026
 H         7.2078102699       -1.3057215423       -1.5392699391
 H         7.2895770601        0.3050756773       -1.9156678766
 H         6.2222126798       -0.0557957227       -0.6132982088
 H         1.5553912326       -2.5896708346       -2.7692791414
 H         2.6120995431       -3.7310780113       -1.9200382737
 H        -0.6603663754       -4.5589598632       -4.8957646823
 H        -1.5847035483       -5.8672581794       -4.3385229752
 H         2.2645923091       -7.2377304570       -4.2373186992
 H         0.7547200890       -6.7427901040       -4.8583630539
 H         0.8101219606       -7.8970618281       -3.4842397401
 H         2.9780104170       -6.4333789047       -1.5691326072
 H         1.8341318067       -5.4688216915       -0.7987623895
 H         1.4124054262       -7.0878013735       -1.4434778316
 H        -3.3717337468       -4.5557930492       -3.6034993486
 H        -2.2432771833       -3.7750099694       -2.4985327019
 H        -2.4158402723        0.6412030499       -3.3238108059
 H        -3.2006262044        1.0107299625       -1.8943794323
 H        -1.5237282314        0.3501249618       -1.7185650423
 H        -4.0071696107       -1.5052910124       -5.6960897755
 H        -2.9596212214       -0.1553672498       -5.1858995208
 H        -4.7723080040       -0.0997454177       -4.8190602058
 H        -5.7799021715       -2.0680106927       -3.9525591301
 H        -4.7781820044       -3.4037696542       -3.6116450750
 H        -5.0445084792       -2.3587677711       -2.2330228194
 Na       -2.3675385687       -1.3130759121        0.6777337933
