155

 C        -6.2167455572        1.2660586624        2.1934802790
 C        -5.4098876019        0.1308197930        1.4896958136
 C        -5.9935922664       -1.3275965064        1.6709662256
 C        -5.0417129441       -2.1566831435        2.5506489632
 C        -5.5443254557       -2.5073153360        3.8934353522
 C        -7.4444889405       -1.3909909804        2.2809494648
 C        -6.0399188384       -2.0156986419        0.2548074409
 O        -4.4479149556        0.3251340286        0.8009913698
 O        -3.9780310099       -2.6642113005        2.1307912077
 C        -4.4735617734       -2.7230045754        4.9885177359
 C        -4.0218441784       -1.2861632478        5.5989633965
 C        -2.8050155315       -1.2617778806        6.6463434358
 C        -1.4855961781       -1.3249694608        5.7161009201
 C        -0.7687284351        0.0483518975        5.6078691528
 O        -4.4665648093       -0.2038923930        5.1259814117
 O        -1.0950992451       -2.3850272016        5.2289088370
 C        -3.0461456205       -0.0599156600        7.5158935307
 C        -2.8457067389       -2.4969305463        7.5912165723
 C         0.2320723301        0.0486244638        4.4487879740
 C        -0.3762217304       -0.5455642204        3.1696065985
 C         0.4598779461       -1.3302554884        2.1118194494
 C         0.4684982711       -0.3829507407        0.8002596080
 C         1.4836402889        0.6540719824        0.4291660825
 C         1.8603421327       -1.5167368402        2.6289375674
 C        -0.1321214153       -2.7872563950        1.7398189233
 O        -1.5657910030       -0.4828881374        2.8788162905
 O        -0.4865401695       -0.4731258115        0.0603559694
 C         0.8113933083        1.8900069487       -0.2597868644
 C        -0.1073304149        2.5314189003        0.8122273044
 C        -0.7930847299        3.9014204561        0.4397335900
 C         0.2559654648        4.9895398684        0.9606995510
 C         0.6536465770        6.3433798553        0.1862778016
 O        -0.1743177719        2.1976854121        2.0028041212
 O         0.7155060008        4.8659750520        2.0567412599
 C        -1.3337955331        4.1068471058       -0.9716195605
 C        -1.9633117884        4.0805739454        1.5096561583
 C         2.1865962649        6.4468636299       -0.0779407993
 C         2.5251366830        5.6941160518       -1.2775816240
 C         3.7664179414        6.1103454880       -2.2112071613
 C         4.6895506836        4.9101510215       -2.2063763885
 C         4.2447544810        3.6030640411       -2.9185632626
 C         3.1840581088        6.5185723868       -3.5844679137
 C         4.6102794117        7.3282222213       -1.5903256169
 O         1.8292704382        4.7736084501       -1.6369073270
 O         5.6822415012        4.9153374871       -1.5192595404
 C         5.3274968020        2.5035544706       -2.6109750148
 C         4.7906043372        1.0798392131       -2.9965360757
 C         5.5368338200       -0.1531351461       -2.3544658945
 C         4.3302186587       -1.0782999543       -1.8303116456
 C         3.9746938290       -2.3691995707       -2.6679321836
 O         3.8868063958        0.9540057802       -3.7986845144
 O         3.7375059335       -0.8556239044       -0.8096576931
 C         6.2970127822       -0.7166320610       -3.5556577433
 C         6.5348059773        0.0975903436       -1.1462440443
 C         2.8468984536       -3.2162662744       -2.0592272399
 C         2.4011671171       -4.2746477571       -2.9915727713
 C         1.5717901556       -5.4822287981       -2.4935796431
 C         0.0835823442       -4.9850618440       -2.7440463766
 C        -0.4225072738       -4.6068835434       -4.1283335310
 C         1.6998072961       -6.7380582537       -3.4095325629
 C         1.8394159000       -5.8613559150       -0.9942800403
 O         2.4449825146       -4.1163889299       -4.1981856676
 O        -0.6859679495       -4.8885540109       -1.7967039112
 C        -1.8050249227       -3.8524686551       -4.1500588326
 C        -1.6206206526       -2.3915068596       -4.2735745770
 C        -2.8955919254       -1.4747761207       -4.1052643768
 C        -2.6056760946       -0.9041066310       -2.6471422250
 C        -2.2425565621        0.5716586343       -2.3373027934
 O        -0.5031075871       -1.9577217106       -4.6953099626
 O        -2.8121091696       -1.6971401481       -1.7291804717
 C        -3.0576791101       -0.4094850517       -5.1700427946
 C        -4.1625585045       -2.3502169800       -3.9694212044
 H        -7.1624456273        1.2841093977        1.6196552002
 H        -6.5025504037        1.1126121899        3.2401482937
 H        -5.6832216547        2.1653400903        2.1302563400
 H        -6.2452143125       -1.8129590169        4.3165695536
 H        -6.2285706516       -3.3652569791        3.6852471121
 H        -7.4589512924       -0.8364562114        3.2427939602
 H        -7.7003173532       -2.4381062077        2.4386068592
 H        -8.1535677304       -0.9612625074        1.5338267484
 H        -6.2428331747       -3.0676981056        0.3779965114
 H        -6.7140313541       -1.5529231847       -0.4049814423
 H        -5.0045823099       -1.8989387865       -0.2310209776
 H        -4.9168398778       -3.4077875806        5.7444809552
 H        -3.5354902176       -3.1763316554        4.5632020573
 H        -1.6155583363        0.7277064426        5.4507592962
 H        -0.2070677652        0.1813138784        6.5128135870
 H        -3.7306024880       -0.3862316278        8.2324227178
 H        -3.5557731663        0.5986313789        6.7690856631
 H        -2.2558381020        0.5479875142        7.9340970224
 H        -3.0866752123       -3.3907319047        6.9196141593
 H        -1.8920386644       -2.7319736486        7.9994300420
 H        -3.5283061529       -2.3637717819        8.4224056684
 H         1.1363016311       -0.6194444177        4.8263264244
 H         0.6519160072        1.0748913379        4.3214465820
 H         1.8893738901        0.9558218496        1.3892436581
 H         2.2756058130        0.2549574597       -0.2166648720
 H         2.5422177155       -1.9290848104        1.9383864992
 H         1.8348159105       -2.1302358238        3.5922236579
 H         2.3271418086       -0.6224827542        2.9730610445
 H         0.5206938130       -3.2851395552        1.0887059469
 H        -0.3875500228       -3.3261977216        2.5743245229
 H        -1.1894764261       -2.7863837571        1.2834498950
 H         1.5711338998        2.6135853142       -0.6016538269
 H         0.2548989244        1.6933737018       -1.1743979464
 H         0.1770660270        6.6727299940       -0.7502438525
 H         0.4141990817        7.1052963147        0.9208306706
 H        -0.5257083191        4.5319003019       -1.6307726866
 H        -2.0893480222        4.8700395720       -0.7529956185
 H        -1.7655299591        3.2328414094       -1.5334895667
 H        -2.9435941186        3.8908222390        1.0235065705
 H        -1.9070920036        3.3870856663        2.3967760126
 H        -2.0272656822        5.1671627865        1.8401392596
 H         2.7714853995        6.2747570156        0.8187976351
 H         2.4972839697        7.4986194366       -0.3094111878
 H         3.2729431974        3.2876109288       -2.4492853337
 H         4.0653082921        3.7266159218       -3.9472348145
 H         2.9172182713        7.6006763896       -3.5263360236
 H         2.2478962213        6.1511100844       -3.7080707512
 H         3.7032431569        6.3663769354       -4.4916164697
 H         4.9983919163        7.2825988316       -0.5595602421
 H         5.4533649298        7.5462208434       -2.2659230722
 H         3.9348877531        8.2171506448       -1.5805937524
 H         6.2310733493        2.6789666283       -3.2265673259
 H         5.5554256537        2.6030807716       -1.6254444306
 H         3.7536690915       -2.0267292236       -3.7140632643
 H         4.9431317859       -2.9633740072       -2.6237989685
 H         7.0309626091       -1.5121821181       -3.3005459770
 H         6.8125922916        0.0730689495       -4.0401538539
 H         5.6409181949       -1.1601058756       -4.2180566080
 H         6.8555252969       -0.8150522259       -0.7844046001
 H         7.4713650205        0.6259381532       -1.3455471347
 H         5.9924497696        0.7151402754       -0.4523256213
 H         2.0043395358       -2.5744511913       -1.7219774168
 H         3.3323508137       -3.4431833961       -1.1695625722
 H         0.2395661570       -3.9078346898       -4.6163075949
 H        -0.6157123862       -5.3598791738       -4.8879896713
 H         2.5733206123       -7.2886328863       -3.0128953040
 H         1.9213707921       -6.6764209096       -4.5466189253
 H         0.8622761834       -7.4922469661       -3.1940300178
 H         2.9132716104       -5.8930985386       -0.7861663419
 H         1.4741169455       -5.0771900771       -0.2929809026
 H         1.4925876100       -6.8403640566       -0.7322548769
 H        -2.4193477370       -4.2890192014       -4.9666685869
 H        -2.3926502140       -4.0650078740       -3.2437297930
 H        -3.2334279320        0.9962764930       -1.9772025504
 H        -1.5111970768        0.7141930684       -1.5386706212
 H        -2.0820332989        1.1130876715       -3.1860531292
 H        -3.3058986649       -1.0088585200       -6.0366792523
 H        -2.1234365580        0.0660647592       -5.3293805586
 H        -3.9724463234        0.1899616907       -4.9248759188
 H        -5.0207268356       -1.8243923468       -4.2541011891
 H        -3.9355233883       -3.0584695453       -4.8361500105
 H        -4.3192244888       -2.8827405499       -3.0504751411
 Na       -2.6541679364       -1.2620776933        0.6851670202
