155

 C        -6.2235799536        1.3037838058        2.0175898648
 C        -5.4626542530        0.1002972786        1.5261630710
 C        -6.1480346220       -1.4138342843        1.6052370443
 C        -5.0727701530       -2.3017254102        2.5346473160
 C        -5.4971310629       -2.7696106941        3.9857447823
 C        -7.5177566882       -1.3445826010        2.2341401983
 C        -6.1775914891       -1.8724516910        0.1525200542
 O        -4.4163468476        0.2978770282        0.9115883957
 O        -3.9477696270       -2.5077789596        2.1924532845
 C        -4.3916884103       -2.8881541208        4.9887637833
 C        -4.0680635674       -1.4887291778        5.6259908537
 C        -2.8113135633       -1.4686597144        6.6090817569
 C        -1.6453400585       -1.3483935520        5.6885196565
 C        -1.2286973091        0.1521016983        5.3292450304
 O        -4.5965986494       -0.4693250743        5.3808680047
 O        -1.1750713001       -2.3997003609        5.2918218534
 C        -2.9299339524       -0.3003726214        7.6391333410
 C        -2.7612904053       -2.8409767518        7.3744680784
 C        -0.0760464869        0.1316636481        4.3028091932
 C        -0.4844727485       -0.4062495442        2.9660374636
 C         0.5233823032       -1.3006889633        2.1010167144
 C         0.4207772333       -0.4353005402        0.7981457297
 C         1.3932336277        0.7269047762        0.3834042627
 C         2.0273099762       -1.4201290477        2.5737325861
 C        -0.0156014915       -2.7188914976        1.9768319396
 O        -1.6105503362       -0.3611427597        2.5591043673
 O        -0.6392579314       -0.5123830057        0.2107892722
 C         0.7150337991        1.9297882316       -0.2784074995
 C        -0.1252434393        2.5915100154        0.8312112815
 C        -0.8363328518        3.9598851372        0.6107291489
 C         0.2255202694        5.0153419351        1.1204567515
 C         0.4534073024        6.3403212111        0.3280526855
 O        -0.2755296754        2.1145958058        1.9279103643
 O         0.9346331899        4.7289106011        2.0585941887
 C        -1.1844573379        4.1779793405       -0.9208552833
 C        -2.1235499752        4.1415609691        1.4074931791
 C         1.9268944053        6.5218264913       -0.1101544882
 C         2.4150325893        5.6859455596       -1.3644775345
 C         3.7264671956        6.1469068183       -2.1756336330
 C         4.7445669366        4.9493126158       -2.1701734912
 C         4.3819397540        3.6116685328       -2.8691152115
 C         3.3558279026        6.3176646675       -3.7367313923
 C         4.3564506867        7.5024771512       -1.6643357244
 O         1.7655752110        4.6908500695       -1.6615242630
 O         5.8057141277        5.1056593875       -1.6599221799
 C         5.2864317621        2.4558343153       -2.4644532071
 C         4.8616278700        1.0691687346       -2.9569943459
 C         5.6765148025       -0.2874871778       -2.3257740624
 C         4.4720489585       -1.1293759737       -1.8504135990
 C         3.9450457529       -2.2402324692       -2.8313067821
 O         3.8749708563        0.8625867578       -3.6135940594
 O         3.8525623080       -0.6878813577       -0.8864267552
 C         6.5685908100       -1.0036933242       -3.4707960940
 C         6.5221791415        0.1598856353       -1.1176460904
 C         2.8743642219       -3.1286585576       -2.2022619094
 C         2.5209730040       -4.2463261476       -3.1216003750
 C         1.6369318405       -5.3905262580       -2.4691855575
 C         0.0518722753       -5.0069154857       -2.6618256396
 C        -0.4358998223       -4.8324572603       -4.0739736385
 C         1.9769177657       -6.7660572563       -3.0947165318
 C         1.8164189194       -5.4965925882       -0.9767904800
 O         2.7840859996       -4.2594932312       -4.3116521619
 O        -0.5886618859       -4.8382225364       -1.6643680026
 C        -1.6555817089       -3.8335347112       -4.0939564149
 C        -1.5397245492       -2.3323279006       -4.3250533953
 C        -2.9730454035       -1.4434857250       -4.0988888760
 C        -2.6133053397       -0.9069470278       -2.6197022121
 C        -2.1304750355        0.5469530101       -2.5965591549
 O        -0.5385284677       -1.7083354587       -4.4335134079
 O        -2.7853322088       -1.6480915485       -1.6541089088
 C        -2.9661380932       -0.3578155212       -5.1680835877
 C        -4.2928497311       -2.2540676166       -4.1649589094
 H        -7.2812108111        1.1033063062        2.0707091794
 H        -5.9077988584        1.5627129314        3.0204819381
 H        -6.0143164487        2.1852877727        1.3611884402
 H        -6.1989510586       -2.0470438300        4.4620000450
 H        -6.1441132952       -3.6474465555        3.9965342724
 H        -7.4386221295       -0.8083762244        3.1481032789
 H        -7.7909584203       -2.3829048180        2.4895606787
 H        -8.2072752254       -0.9000480511        1.5356517020
 H        -6.5036452295       -2.9231865865        0.1636031802
 H        -6.9132245842       -1.2200043132       -0.4010973385
 H        -5.2732391200       -1.8303099970       -0.3540845310
 H        -4.7591016827       -3.5614004805        5.7210245243
 H        -3.4742786257       -3.3001229610        4.5990670551
 H        -2.1063175330        0.7091663484        4.9586509477
 H        -0.7983908606        0.4885969471        6.3262943009
 H        -3.9207403702       -0.5369679275        8.1987439663
 H        -2.8161647423        0.6896121097        7.2005604006
 H        -2.1146964328       -0.4435144220        8.4170534915
 H        -2.2247000725       -3.6257660483        6.9341335691
 H        -2.3755515745       -2.8594773193        8.4270846578
 H        -3.8228099745       -2.9714708444        7.5366292691
 H         0.7370533070       -0.3632605381        4.6365595908
 H         0.2575024689        1.1585419358        4.2484853391
 H         1.8588072229        1.1333522361        1.3280915959
 H         2.2380580641        0.3776652908       -0.2346797655
 H         2.5828038432       -2.0103164243        1.8308969829
 H         2.2405039481       -1.6908387953        3.5521684149
 H         2.6328382425       -0.5072875926        2.3879897638
 H         0.7144996938       -3.2703400723        1.3607412671
 H        -0.3985030475       -3.2045491465        2.9125222725
 H        -0.9212051548       -2.8132785329        1.4559271253
 H         1.4968465991        2.6119521010       -0.6161162680
 H         0.1803928346        1.8642935977       -1.2388706256
 H        -0.1436074705        6.3712382575       -0.5856653424
 H         0.1410701971        7.2674388106        0.8467458481
 H        -0.3002368283        3.9310276227       -1.5132792108
 H        -1.6109838218        5.1507085015       -1.1618379267
 H        -1.9987940371        3.4742652388       -1.1659937117
 H        -3.0252160371        3.5737523768        1.1234916526
 H        -1.9606639403        3.8541112666        2.4155008557
 H        -2.3098156704        5.1464757893        1.3389312985
 H         2.5284835075        6.1645436406        0.7677459439
 H         2.2019612232        7.5595075898       -0.1088316206
 H         3.3732482827        3.3516547842       -2.6203235930
 H         4.4656063385        3.7791995786       -3.9911322191
 H         2.4830451566        6.8342971106       -4.0130862181
 H         3.2799874934        5.3260058686       -4.2845060688
 H         4.2001899227        6.8429769284       -4.2698441358
 H         4.9622114406        7.3630929482       -0.7475250062
 H         5.0145653700        7.9506613585       -2.3191677129
 H         3.5946701828        8.1337109791       -1.3998731657
 H         6.3337725781        2.6074662224       -2.7003630718
 H         5.1900922461        2.4066098897       -1.2759701907
 H         3.5682862088       -1.6528044392       -3.6941734101
 H         4.8172847856       -2.8392589488       -3.0590187299
 H         6.6256159558       -2.0972141315       -3.2857389191
 H         7.6839840050       -0.6804156303       -3.5061860860
 H         6.0911113117       -0.9641050421       -4.5069956755
 H         7.2449817066       -0.6560398824       -0.8338012219
 H         7.3160299384        0.8439707914       -1.3879408929
 H         5.8867294910        0.6183945005       -0.3760870516
 H         2.0220822840       -2.4943173651       -1.9208047314
 H         3.4117668067       -3.2661864136       -1.2051843223
 H         0.4004747347       -4.5000488452       -4.7803459082
 H        -0.7993968545       -5.8540007411       -4.4303804678
 H         3.0272651075       -7.0467120490       -3.0863555893
 H         1.8028793818       -6.6529650625       -4.1111068110
 H         1.4365628036       -7.5789770671       -2.7361109374
 H         2.8199849209       -5.7975989932       -0.7157920373
 H         1.7304464487       -4.5484403912       -0.5107155761
 H         1.1942795581       -6.3180244094       -0.6211872616
 H        -2.3860417624       -4.1709994684       -4.7995241946
 H        -2.1162026177       -4.0615300536       -3.1470676528
 H        -2.8696594029        1.2124680215       -2.1590365986
 H        -1.2158395498        0.5518054064       -1.9661878959
 H        -1.9399598612        0.9955990800       -3.6177742220
 H        -3.5545691841       -0.7354819931       -5.9926731256
 H        -1.9442063996       -0.4329698776       -5.5334127169
 H        -3.2686191249        0.5691001845       -4.8063325707
 H        -5.1615082727       -1.5226020076       -4.1821676346
 H        -4.4100624262       -2.8389514939       -5.0838969113
 H        -4.3863938937       -2.8840064368       -3.2470296527
 Na       -2.7038351954       -1.1557539747        0.7873887048
