155

 C        -6.5837331691        0.9241255737        2.5073637305
 C        -5.8175033698       -0.0266155375        1.5889423605
 C        -6.4456785898       -1.4696096784        1.3856577450
 C        -5.3808745956       -2.3691928061        2.0986826846
 C        -5.6954328852       -2.8887835118        3.4614511530
 C        -7.8128841596       -1.6465122445        2.0176190755
 C        -6.5028475354       -1.7939446176       -0.1084660938
 O        -4.8090190969        0.3529062859        1.0956553779
 O        -4.3447495286       -2.6711706008        1.5156240238
 C        -4.4961628250       -3.3566409025        4.3756408539
 C        -4.4022326211       -2.5564463152        5.7034966897
 C        -3.0051694948       -2.7771631650        6.4753708297
 C        -1.8973480414       -2.0033479353        5.7596943367
 C        -1.9244101024       -0.4124149525        5.6656652151
 O        -5.3166236855       -1.8564468526        6.1020679369
 O        -0.9971195503       -2.5386957751        5.1158132359
 C        -3.1384924788       -2.1880396035        7.8869681130
 C        -2.5874349011       -4.2197860021        6.4433087040
 C        -1.1893789779        0.3879831265        4.4993704601
 C        -1.2184368645       -0.3574531501        3.1480576260
 C         0.0466001113       -0.5890472364        2.4790296685
 C         0.0026604925       -0.0226099548        0.8425810602
 C         1.0841504238        0.8174388666        0.2245660307
 C         1.3085763927       -0.0739512447        3.1437521229
 C         0.1190239021       -2.1137298037        2.1798862575
 O        -2.2453393806       -0.8424656865        2.6750552009
 O        -0.7214847201       -0.5264232838        0.0161007953
 C         0.5540202507        2.2656645692       -0.0649143610
 C        -0.2524434622        2.8853105811        1.0658187108
 C        -0.5889875280        4.3907121475        0.8004504279
 C         0.7382162490        5.2403000798        0.7120872309
 C         0.6681872457        6.6186107116        0.0838491187
 O        -0.6582759583        2.2725470560        2.0542784382
 O         1.7687770978        4.6929855590        0.9632181385
 C        -1.3136243270        4.3948811182       -0.6010745033
 C        -1.5227402337        5.0772128156        1.9018636936
 C         1.9544626699        6.8197635484       -0.8119146779
 C         2.2407946689        5.7654998010       -1.9516931714
 C         3.5943818815        5.9894312095       -2.7205580657
 C         4.5072782177        4.8925349617       -1.9437814501
 C         4.5109572187        3.5390615289       -2.6294363106
 C         3.5294339057        5.8994053792       -4.2470973084
 C         4.2474472812        7.3545630673       -2.4060022810
 O         1.4598824268        4.8915246481       -2.3345635171
 O         4.9917536593        5.1714405674       -0.8353540801
 C         5.4807740875        2.4967148778       -2.0814126948
 C         5.4159670064        1.1516454716       -2.8357180532
 C         6.0759452687       -0.0954205297       -2.2100680588
 C         4.8050985311       -0.9833057781       -1.8265862535
 C         3.9576883269       -1.3715144675       -2.9964324730
 O         4.8171401137        1.1625443359       -3.9108990144
 O         4.4535064326       -1.2298737885       -0.6634548331
 C         6.9808554891       -0.8774566653       -3.2653607139
 C         6.8905084247        0.2094094468       -0.9251990692
 C         2.7932604080       -2.2314211141       -2.6359682338
 C         3.1879628654       -3.7687071269       -2.6986590801
 C         2.1550664424       -4.7691504103       -2.0614627437
 C         0.7038431664       -4.2650967111       -2.4386558177
 C         0.0771429231       -4.7399515898       -3.7701421887
 C         2.4177544706       -6.2516009748       -2.6096932806
 C         2.3052569718       -4.7173623882       -0.4773773528
 O         4.1366908297       -4.1333270194       -3.3427444372
 O         0.0493714367       -3.6449610902       -1.6311916508
 C        -1.2322647346       -4.1060965196       -3.9505328685
 C        -1.2890051586       -2.5663446963       -3.9923535318
 C        -2.7704450974       -1.8598898214       -4.1419946049
 C        -2.8197928107       -1.0288190532       -2.7933527716
 C        -2.3319399615        0.5274812430       -2.6442383019
 O        -0.3132709371       -1.8756160865       -4.0707473930
 O        -3.2759561466       -1.4762468410       -1.7613048113
 C        -2.8968211324       -0.8817762075       -5.3190581975
 C        -4.0355176283       -2.7197272232       -4.1708299686
 H        -7.6953730205        0.8257977202        2.3073166352
 H        -6.4463446150        0.7380028431        3.6041102434
 H        -6.2727348370        1.9428929650        2.4014881031
 H        -6.3166222515       -2.1762497892        3.9827476722
 H        -6.1560663210       -3.8788454108        3.4393629654
 H        -7.9087702295       -1.4481371027        3.0606555774
 H        -8.2342839316       -2.6219645351        1.8182992602
 H        -8.4969584260       -0.9209010267        1.5542712094
 H        -6.6853636440       -2.8424146660       -0.1994340495
 H        -7.2973281803       -1.2910572534       -0.6304872709
 H        -5.4847024143       -1.5541796105       -0.5892241039
 H        -4.5806388692       -4.3853908675        4.7227868550
 H        -3.5542911927       -3.3333771253        3.8159291609
 H        -2.9216962883       -0.1799619019        5.8047196331
 H        -1.5525174125        0.0371568122        6.6291115943
 H        -3.2956721282       -2.9486379830        8.5438681626
 H        -3.8863738119       -1.4189622056        8.0944467342
 H        -2.2923222537       -1.7032104235        8.2855133610
 H        -2.4343352059       -4.6706793470        5.4000716036
 H        -1.6450667556       -4.2637128388        6.9442436343
 H        -3.1951304706       -4.9790992863        6.8839420324
 H        -0.1400539828        0.7137946113        4.8695251522
 H        -1.8075961429        1.2978203093        4.2604050684
 H         1.9015440210        0.9020875499        0.9617331993
 H         1.4583225788        0.3503373515       -0.7108978267
 H         2.1459145939       -0.3937255173        2.5707003240
 H         1.2249148988       -0.5104920463        4.2020214680
 H         1.3095373725        1.0072142608        3.3442813339
 H         1.0272034350       -2.4475120511        1.7085694034
 H         0.1484858916       -2.7420338000        3.0646504102
 H        -0.7349820618       -2.4973029832        1.5375798269
 H         1.2676715411        3.0205849727       -0.4305515921
 H        -0.2458929722        2.1492587840       -0.8568493576
 H        -0.2513178141        6.8603744358       -0.4878663445
 H         0.7430244371        7.3477399496        0.8750242059
 H        -0.6425466778        4.0838206318       -1.3897000718
 H        -1.8171487023        5.2986434123       -0.7599333603
 H        -2.0654892829        3.6247827952       -0.6302799842
 H        -2.1147983374        4.3546635775        2.3860262112
 H        -0.9526547586        5.5825087734        2.7135929231
 H        -2.3215992017        5.8202893565        1.4995985358
 H         2.7186505188        6.6180353010       -0.0361799397
 H         1.9044711313        7.8118779078       -1.2091319112
 H         3.5139342751        3.2333175050       -2.4388507545
 H         4.5248748297        3.6966478663       -3.7379988042
 H         2.8812786461        6.7723315611       -4.5770602809
 H         3.0538781762        5.0082871082       -4.6295314019
 H         4.5286195219        5.9966508240       -4.5593685990
 H         4.8131544044        7.3684396571       -1.5043863886
 H         5.0007285605        7.6334070429       -3.2441761161
 H         3.3735566042        8.1059517269       -2.3099073019
 H         6.4557204274        2.8629314342       -2.2389136862
 H         5.2776616820        2.3865945743       -1.0026667761
 H         3.5534853661       -0.4829265811       -3.6486142399
 H         4.4647302121       -1.9408774427       -3.8093931897
 H         7.2074916654       -1.8643768562       -2.9610714558
 H         7.8695032612       -0.4507050539       -3.5179234833
 H         6.4775311822       -1.0644854711       -4.1996336834
 H         7.1781853877       -0.7118111956       -0.4397128076
 H         7.7888732465        0.8336820920       -1.2395823774
 H         6.3404608370        0.8983646805       -0.2520406564
 H         1.9961992965       -2.0844684268       -3.3206660663
 H         2.3309809678       -2.0969899612       -1.7186804394
 H         0.7730183001       -4.3679175560       -4.4881174827
 H         0.2117054218       -5.8152512039       -3.7629006749
 H         3.3470960831       -6.4917326229       -2.1804560719
 H         2.5544032104       -6.3828833174       -3.6472157445
 H         1.7413627698       -6.9612912727       -2.1822563318
 H         3.3886361203       -4.7502395705       -0.2115645766
 H         1.7989994144       -3.7221944800       -0.2947749740
 H         1.7443596313       -5.5216680168       -0.0019028481
 H        -1.6169061396       -4.3332860989       -4.9801446720
 H        -1.9313414012       -4.6324967659       -3.2858679924
 H        -2.7805570100        0.9719715329       -1.7611575014
 H        -1.2584788782        0.5739954699       -2.5428917142
 H        -2.6518097490        1.2030012889       -3.4202723943
 H        -3.8552986587       -1.0028524534       -5.8099453151
 H        -2.1272462590       -1.0419604932       -6.0264246728
 H        -2.9600021654        0.1998740964       -5.0386318346
 H        -4.9987385645       -2.3519359415       -4.2994533667
 H        -3.9143836855       -3.4904139513       -4.9172235694
 H        -4.0338278916       -3.3251651714       -3.2506490535
 Na       -2.8283903557       -1.2456580899        0.3746316020
