155

 C        -6.5386375561        0.9128169266        2.5437036103
 C        -5.8151784826       -0.0390206388        1.6701394796
 C        -6.3808667888       -1.5089786225        1.3315188014
 C        -5.5094671948       -2.5629458964        1.9977106783
 C        -5.7917704320       -3.0849475035        3.4027170834
 C        -7.9123463760       -1.6449275273        1.7411187084
 C        -6.3573704498       -1.7624591785       -0.2171827329
 O        -4.7694139881        0.3051837630        1.0764484762
 O        -4.4842523569       -2.9874111990        1.5057068026
 C        -4.4769139630       -3.3674268682        4.1643712043
 C        -4.3871269621       -2.6995160549        5.5264284082
 C        -3.0289268873       -2.8846919797        6.2851940720
 C        -1.9010652766       -2.1348299273        5.5578709501
 C        -2.0584041606       -0.5754724976        5.5728886062
 O        -5.2277843911       -2.0464337752        6.0864774566
 O        -0.8703879758       -2.6090203262        5.1224758527
 C        -3.0245049767       -2.3557987827        7.6909020322
 C        -2.6711491933       -4.3515358306        6.3558290109
 C        -1.3539136708        0.3052388695        4.5783691981
 C        -1.3904975534       -0.4111576634        3.2714642594
 C        -0.0325109661       -0.7304828014        2.4666753189
 C        -0.1025261448       -0.0446180997        1.0166421717
 C         1.0065665371        0.9311521266        0.4950432000
 C         1.2967465550       -0.1830250726        3.1885894302
 C         0.0587706429       -2.2175982865        2.2845311748
 O        -2.4912437887       -0.7102313525        2.8184724799
 O        -1.0935917282       -0.1463437917        0.2875128396
 C         0.3261690521        2.1253070137       -0.1110581344
 C        -0.2876814741        3.0265082062        1.1044465944
 C        -0.6736013544        4.5267872259        0.7400640377
 C         0.7692294974        5.1848915675        0.7096070789
 C         0.8220689695        6.6101422717       -0.0985733812
 O        -0.3419712811        2.6001922752        2.2510340540
 O         1.7283920691        4.7116117176        1.3047475854
 C        -1.4761461526        4.6821856865       -0.5727493058
 C        -1.4627976081        5.0426429404        1.9696358545
 C         2.1170369521        6.9119544569       -0.8519913842
 C         2.2711983921        6.1743739864       -2.1366771401
 C         3.6789898023        6.1081932828       -2.8149033615
 C         4.4841806537        5.0146734655       -1.9383018570
 C         4.5064506920        3.5781562975       -2.5901603685
 C         3.5557288567        5.6500974595       -4.3189110197
 C         4.3595453186        7.4278621038       -2.6510267316
 O         1.4718488936        5.4041049501       -2.6036716709
 O         4.7639590809        5.1956888492       -0.7664360878
 C         5.5666221474        2.5898005313       -2.0888273108
 C         5.5954264597        1.2932481463       -2.9659327043
 C         6.0832652782       -0.0273730640       -2.2387405995
 C         4.7340659052       -0.8006493504       -1.8508102260
 C         4.0217993167       -1.3675184426       -3.0556707448
 O         5.1647003442        1.1890404182       -4.0781877683
 O         4.4402464463       -1.0596663316       -0.7119612211
 C         6.8853204890       -0.9938507422       -3.1316913353
 C         6.8968702300        0.2608062287       -0.9239803250
 C         2.8248231982       -2.2248369459       -2.6534657408
 C         3.1609887729       -3.7416039524       -2.6283912093
 C         2.1695703595       -4.6968376302       -1.9990933787
 C         0.7498681662       -4.2573143840       -2.3123364873
 C         0.1542441729       -4.6229975599       -3.7327856782
 C         2.5217540557       -6.1514872107       -2.5022864868
 C         2.4239838895       -4.6166507531       -0.4296010830
 O         4.1753918109       -4.1854453622       -3.1307366900
 O         0.1460049250       -3.5378605230       -1.5330965180
 C        -1.2543165989       -4.0883970170       -3.9191467663
 C        -1.2168995521       -2.6006995757       -4.0723976792
 C        -2.6758194237       -1.8535113967       -4.0961623435
 C        -2.8409010468       -1.1325907458       -2.6922712061
 C        -2.2228635817        0.2120291712       -2.5853686162
 O        -0.2001330571       -1.8972464214       -4.2551942994
 O        -3.3141316254       -1.7773745425       -1.7420408414
 C        -2.8089593722       -0.9803386672       -5.4021994568
 C        -3.8217432295       -2.9251952639       -4.0590265263
 H        -7.6039044391        0.7913237098        2.5799736881
 H        -6.1405012704        0.8663113590        3.5436146644
 H        -6.3076377928        1.9592298707        2.2473272083
 H        -6.3630652313       -2.3860155695        4.0554141838
 H        -6.2637713371       -4.0648514522        3.3090522219
 H        -8.0306007702       -1.3799962923        2.8073549997
 H        -8.1708170944       -2.7057500186        1.7896419957
 H        -8.6505320430       -1.0368083945        1.2504092450
 H        -6.3792943731       -2.8389262809       -0.4250473852
 H        -7.1628429760       -1.2272873967       -0.7432019082
 H        -5.4633580063       -1.3557560733       -0.6208060141
 H        -4.1482720400       -4.3708814916        4.3197331918
 H        -3.7382161153       -2.8754569023        3.5397652943
 H        -3.1912836285       -0.3803425248        5.6948088286
 H        -1.7325487421       -0.2361351684        6.5470281230
 H        -3.5452284663       -2.9880685044        8.4720704729
 H        -3.2372027397       -1.2982039072        7.8324306214
 H        -1.9883723487       -2.2640794127        8.1407977714
 H        -2.5838316657       -4.9112009584        5.4738328123
 H        -1.6683927173       -4.5776258177        6.8213050097
 H        -3.4132258091       -4.8878517410        6.9805221928
 H        -0.3722772567        0.4238989709        4.8533658709
 H        -1.8983295898        1.2081500232        4.3732444274
 H         1.6534527981        1.3611907287        1.2685507111
 H         1.5539848407        0.3775518089       -0.2861828160
 H         2.1240111917       -0.3391767632        2.4717615088
 H         1.4146072428       -0.6167213243        4.1136802384
 H         1.2611522769        0.9060655543        3.3016383013
 H         0.9954813993       -2.5447026894        1.9036388873
 H        -0.0637564589       -2.7478573745        3.1975861654
 H        -0.7034824869       -2.6968097073        1.6447104629
 H         1.1285065610        2.8578081464       -0.3352208238
 H        -0.2874643293        1.8379122139       -0.9314899234
 H         0.1024813103        6.7106689217       -0.8896315517
 H         0.5681973985        7.4016790531        0.6478889965
 H        -0.7558574248        4.5940057996       -1.3960121813
 H        -2.1955303720        5.5209908604       -0.4882733681
 H        -2.1334965118        3.8316592316       -0.7752339815
 H        -2.5838175860        4.7227538091        2.0123831075
 H        -0.9903533815        4.8198508466        2.9294522050
 H        -1.5295419917        6.0875282449        1.8832649908
 H         2.9618960565        6.6632352146       -0.2095657029
 H         2.0353697705        8.0074876268       -1.0952163804
 H         3.4529697389        3.1948622206       -2.4589983045
 H         4.5598121299        3.6684108018       -3.6335803989
 H         3.2467400054        6.5110838448       -4.8213299966
 H         2.8391116718        4.8671760253       -4.4129812244
 H         4.5793674359        5.3782988383       -4.7306343532
 H         4.8305494402        7.5980128661       -1.6350847623
 H         5.1591091316        7.4007791025       -3.3039903515
 H         3.6958175102        8.1946672549       -2.8789909226
 H         6.5861963400        3.1006324832       -2.1745818129
 H         5.3144828840        2.2504855275       -1.0794026076
 H         3.8054215214       -0.5684707772       -3.7279025132
 H         4.6584161794       -2.0051464260       -3.7431722458
 H         6.7614325583       -2.0787424056       -2.9058803850
 H         8.0047110562       -0.7792404434       -3.1260514565
 H         6.5977250355       -0.9641353272       -4.1438550431
 H         7.5726176223       -0.5903363332       -0.7030602321
 H         7.5525770180        1.0753752713       -0.9281745924
 H         6.1348962829        0.4414179698       -0.2229076913
 H         1.9424663783       -2.2718614186       -3.3732440448
 H         2.2799917339       -2.0198346490       -1.6561049839
 H         0.8668049175       -4.2441094198       -4.5460505012
 H         0.3521185786       -5.7203849617       -3.7068416025
 H         3.5150148624       -6.5482660319       -2.1735163254
 H         2.6150367330       -6.0958999540       -3.6472789268
 H         1.7402343615       -6.8941130453       -2.1568800637
 H         3.4812244187       -4.7988459798       -0.3694346834
 H         2.1788700151       -3.6541264446       -0.0287785794
 H         1.9172969858       -5.5156134863       -0.0028565712
 H        -1.7940919433       -4.5825982701       -4.7123885515
 H        -1.8531324584       -4.2860261315       -3.0070056894
 H        -2.3777522151        0.5907159500       -1.5512511364
 H        -1.1052066458        0.1788483223       -2.7671932115
 H        -2.7576960744        0.9516690655       -3.1454970449
 H        -3.7912978609       -0.9633788170       -5.9190187206
 H        -2.0490957301       -1.3695811968       -6.1497292705
 H        -2.6296323985        0.0537409069       -5.1929612822
 H        -4.7493483728       -2.3175076178       -4.0660388581
 H        -3.9795522018       -3.4974410328       -5.0512152703
 H        -3.9285610526       -3.6670181770       -3.3230360228
 Na       -3.2332375470       -1.2422470369        0.5551494114
