155

 C        -7.7001389983        0.2389096425        1.5097567025
 C        -6.5291983008       -0.6272835520        1.0565090750
 C        -6.7748112329       -2.1783308866        0.6795021576
 C        -5.7936889336       -2.9888465784        1.6991452881
 C        -6.4507655798       -4.1889646708        2.5131037896
 C        -8.1986222541       -2.6376897538        0.7951587291
 C        -6.2239484047       -2.5187314664       -0.7616389054
 O        -5.4592975900       -0.1044586927        0.8389264653
 O        -4.6109557875       -2.7422223690        1.8852610208
 C        -5.5091122261       -4.9774502969        3.4208018327
 C        -5.2097747457       -4.2892638779        4.7549675537
 C        -3.8738439977       -4.4783136900        5.5311948222
 C        -2.8077173491       -3.4272830185        4.7847300180
 C        -2.5041633202       -2.0798466226        5.5208846195
 O        -6.2091465090       -3.8914344448        5.3896664831
 O        -2.2116736343       -3.7551049550        3.8522448369
 C        -4.2233231032       -3.9716476311        6.9895863846
 C        -3.3228620668       -5.9531769121        5.4466677930
 C        -1.3946597899       -1.3191381329        4.8023710328
 C        -1.5914206056       -0.9795116592        3.2957572180
 C        -0.3863153431       -0.6628437083        2.3130011875
 C        -0.7413195632        0.5911303733        1.4266520357
 C         0.0206306505        1.8284637979        1.4458162260
 C         0.9338377436       -0.2983496653        3.2200774014
 C        -0.0668998291       -1.9123601334        1.4477827447
 O        -2.6992995731       -0.9179331011        2.8702508240
 O        -1.7066960594        0.5188840951        0.6688661258
 C        -0.6332624315        3.0221670228        0.7196504414
 C        -0.4226139639        4.3288408686        1.5541629105
 C        -0.3411588343        5.7181625211        0.8588288448
 C         1.0821145504        5.9590949129        0.3066064733
 C         1.5448815565        7.4539909115        0.1509879169
 O        -0.3234503436        4.3357994564        2.7566721886
 O         1.8379454951        5.0691055828        0.0682247228
 C        -1.3160273520        5.7911543794       -0.3561393637
 C        -0.7414032867        6.8551882616        1.8515462513
 C         2.8263502913        7.5934981393       -0.7046699115
 C         2.7338294780        6.9968573825       -2.1132348832
 C         4.0090966382        6.9222503054       -3.0841058455
 C         5.0772926876        5.8063923604       -2.6095271146
 C         4.6934804121        4.3061198887       -2.8857894950
 C         3.4729692864        6.5152809433       -4.5435181873
 C         4.7345152461        8.3036688427       -3.2265539109
 O         1.6655376551        6.4893688784       -2.4053901181
 O         6.2110248408        6.1437489915       -2.2968449094
 C         5.3662941655        3.3159586636       -1.9748776459
 C         5.3068219829        1.8818399885       -2.7094342852
 C         5.8488867330        0.5462053727       -1.8866421012
 C         4.5451432294       -0.2330680944       -2.0706959599
 C         4.2940197148       -1.0105226735       -3.3782713838
 O         4.9810804950        1.7674348273       -3.8857579883
 O         3.7188230091       -0.1599397178       -1.1752829276
 C         7.0405604422        0.0080729469       -2.6070368314
 C         6.2324767598        0.7608709731       -0.3911409933
 C         3.2041943493       -2.0752710384       -3.0907566530
 C         3.9094959067       -3.3297362839       -2.5844819304
 C         3.3087034662       -3.9675028417       -1.2045966090
 C         1.7358491275       -3.8584997985       -1.4010763859
 C         0.9635466497       -5.0719997122       -2.0585303476
 C         3.8052933049       -5.3961337796       -0.9605860728
 C         3.5289677546       -3.0073872153        0.0782619763
 O         4.8393226124       -3.9163432776       -3.1417481882
 O         1.0901919096       -2.8607899167       -1.0823967084
 C        -0.5269716553       -4.7514845109       -2.3302142075
 C        -0.7214619969       -3.7065780213       -3.3487038988
 C        -2.2160573893       -2.9261267476       -3.2918449079
 C        -2.1935500870       -2.0424559965       -2.0258090715
 C        -1.3634335081       -0.8556196901       -2.1199535256
 O         0.0890815438       -3.3729735852       -4.1757878896
 O        -2.8396048607       -2.4411254609       -1.0274866675
 C        -2.4672969857       -2.0892340661       -4.5305380843
 C        -3.4231358386       -3.9304686021       -3.2753743751
 H        -8.1206129219        0.8211411811        0.7047278893
 H        -8.5056905238       -0.3555627410        1.9565440443
 H        -7.3570332700        0.9861211276        2.2968062915
 H        -7.1603079207       -3.6552542666        3.2206598575
 H        -7.0063123163       -4.8734116457        1.8688946555
 H        -8.5021292531       -2.6972724532        1.8563780635
 H        -8.4069840740       -3.5236903263        0.2440951605
 H        -8.7849922134       -1.9048024568        0.2421834827
 H        -6.3153554041       -3.6128516964       -0.9368945030
 H        -6.8951431236       -2.0850599204       -1.5181790921
 H        -5.2964449657       -2.1108567547       -0.9679035438
 H        -6.0520877183       -5.9775097133        3.6374253498
 H        -4.4956918063       -5.1478001907        2.8908916309
 H        -3.3486118543       -1.5766814911        5.7562322639
 H        -2.1900534943       -2.4981658504        6.5028992035
 H        -5.1995405426       -4.4508917305        7.2779096602
 H        -4.5694181555       -2.9100814582        7.0278880848
 H        -3.3439026255       -4.2720753719        7.6243768793
 H        -4.1324852480       -6.6197084085        5.3084549004
 H        -2.5214480974       -5.9541448738        4.6860516904
 H        -2.9181174089       -6.1605805395        6.4608551441
 H        -0.5342551478       -2.0159246770        4.9370519040
 H        -1.2801115915       -0.3219739181        5.2544656816
 H         0.3106426749        2.0598277581        2.4948088031
 H         1.0482740826        1.6213076291        1.0522714277
 H         1.7910720747        0.1212584549        2.5610088584
 H         1.4088930247       -1.2041854305        3.5658269354
 H         0.6815442077        0.4106356739        4.0340518484
 H         0.6949080172       -1.6109402917        0.8138969383
 H         0.1138753214       -2.7888620138        1.9384711954
 H        -0.8535693595       -2.2380986257        0.7537217707
 H        -0.3526527052        3.1572778532       -0.3113573620
 H        -1.7148980536        2.8122843529        0.6501249656
 H         0.7318166477        7.9412437815       -0.3532925636
 H         1.7331961317        8.0127114799        1.0614860263
 H        -1.1699263141        4.9938619713       -0.9843654437
 H        -0.9626021012        6.5589402078       -0.9996990504
 H        -2.3615117958        5.8374788124       -0.1113170319
 H        -1.8205171459        6.5445100266        2.2211606123
 H        -0.0231705547        6.8659917415        2.7034624626
 H        -0.7470109836        7.8524410330        1.4476576440
 H         3.7041162342        6.9631437673       -0.3676501984
 H         3.0898520814        8.6667729685       -0.8348774640
 H         3.6263729307        4.1557075718       -2.8822955973
 H         5.0006570639        4.0571893955       -3.9894281725
 H         2.5053500476        6.7650096093       -4.7128741500
 H         3.5028782298        5.4867645927       -4.8094706586
 H         4.1705137025        7.0037575177       -5.2765918738
 H         5.0225161208        8.8088404037       -2.3011674291
 H         5.6335160586        8.1767762255       -3.9232836987
 H         3.9862466256        9.0431984650       -3.6969779259
 H         6.4216950942        3.5484164581       -1.7232332083
 H         4.7412600166        3.1401080359       -1.0498533987
 H         3.9738957876       -0.2496101247       -4.1140696884
 H         5.1018375467       -1.6041221571       -3.7062305986
 H         7.5290649704       -0.7483335030       -2.0385712171
 H         7.7924646620        0.7721820292       -2.7598345123
 H         6.6939219865       -0.3241097623       -3.4958797881
 H         6.9487342083        0.0034864779       -0.0862454962
 H         6.5729359620        1.7898359743       -0.1730635865
 H         5.3755787004        0.5377766824        0.3107898619
 H         2.7190900123       -2.4021764682       -4.1097221846
 H         2.3244438488       -1.6850734956       -2.4992650046
 H         1.4997512689       -5.4317689713       -2.9774229892
 H         1.0769337859       -5.9843804487       -1.4196405866
 H         4.7235006253       -5.4171051621       -0.5241783255
 H         3.8892660492       -5.8203649566       -1.9478448393
 H         3.1343037532       -6.0181657617       -0.4538336197
 H         4.5045835318       -2.5185008477        0.0258331980
 H         2.8333021641       -2.1650334919       -0.0586781487
 H         3.4274061007       -3.5824625762        0.9931632148
 H        -1.0214597495       -5.6143476573       -2.7497906413
 H        -1.0104056692       -4.4353161964       -1.3866982277
 H        -0.9904496714       -0.9208233730       -1.1456738469
 H        -0.5260664535       -0.9141337945       -2.8621398646
 H        -2.1003053405       -0.0141831652       -2.0752111676
 H        -1.7637593331       -2.4848680037       -5.2686290719
 H        -2.1862836278       -1.0443297461       -4.4668223986
 H        -3.5282736857       -2.0598453728       -4.7874975083
 H        -3.1612546226       -4.6408038548       -4.0919535311
 H        -3.3560357645       -4.5950066409       -2.3674832939
 H        -4.2771790417       -3.3576252054       -3.3670985024
 Na       -3.3060225455       -1.1964332685        0.6977799351
