155

 C        -7.7112889674       -0.0603022293        1.5527467101
 C        -6.6389705222       -0.8577087157        0.8840916906
 C        -6.7203133598       -2.4123857740        0.5223649619
 C        -5.9164408546       -3.1750207615        1.5711903378
 C        -6.5676572257       -4.5433588060        2.1586973756
 C        -8.2343672942       -2.9112414068        0.3417956259
 C        -6.1868148686       -2.6246271768       -0.9250989857
 O        -5.5802160959       -0.3225068289        0.7080857301
 O        -4.7500900636       -2.8943135123        1.8653172044
 C        -5.7101244365       -5.0934477708        3.2826316348
 C        -5.3812880731       -4.2487778421        4.5642146770
 C        -4.0677488499       -4.6378667860        5.3497809663
 C        -2.8731872091       -3.7562536047        4.8414294584
 C        -2.7348441119       -2.2832445629        5.3616301268
 O        -5.9818466123       -3.2617400187        4.9222946811
 O        -2.1324715822       -4.1722751833        4.0372940813
 C        -4.3321642089       -4.3867691388        6.8450202604
 C        -3.6332444882       -6.1894481594        5.1296804467
 C        -1.4658692799       -1.5798174331        4.8103167321
 C        -1.6538984417       -0.8788408656        3.4803815929
 C        -0.3582373084       -0.4141010877        2.7552424666
 C        -0.7220583747        0.7591659590        1.7049348781
 C         0.1080266901        1.9705981900        1.6795485298
 C         0.7256761881        0.0564113967        3.7318837024
 C         0.1060872431       -1.6156141537        1.9835975257
 O        -2.7755869186       -0.7854225183        2.9958820663
 O        -1.6468558260        0.6204614557        0.8928141562
 C        -0.2063282586        3.1657132867        0.7293007021
 C        -0.4349246533        4.4559957883        1.5657030857
 C        -0.2319563849        5.8083825383        0.8745053697
 C         1.2418550612        5.8270089561        0.2682379663
 C         1.9221612938        7.2740603764        0.0857453346
 O        -0.7892622945        4.3313249327        2.7071990464
 O         1.9501022464        4.8726361942        0.0619962669
 C        -1.2505596878        6.0092500074       -0.3304106698
 C        -0.3153686330        6.9885438966        1.9841177850
 C         3.0692653914        7.2255335305       -0.8685944045
 C         2.7732087611        7.1233822278       -2.3549471533
 C         4.0655319011        7.2117096753       -3.2965213916
 C         4.9623958795        6.1363664501       -2.6077181001
 C         4.3405947500        4.6980183447       -2.4911908702
 C         3.8036858525        6.8529472922       -4.7295416488
 C         4.8059211240        8.4902257589       -3.2601580420
 O         1.6558371711        6.9522911046       -2.7665246449
 O         6.1290446061        6.3311548695       -2.3219186859
 C         5.4885890992        3.6666199492       -2.2188059729
 C         5.2448590378        2.2117441499       -2.7731893336
 C         5.8261212657        0.9192994731       -1.9933836731
 C         4.5618657528       -0.0728818287       -1.9275535747
 C         4.2807566588       -0.8843293385       -3.1889637557
 O         4.5141093851        2.0934096301       -3.7766989246
 O         3.9252489031       -0.1996510500       -0.8991257392
 C         6.9683127052        0.4339908509       -2.9357284554
 C         6.2228845935        1.1523244422       -0.4985423253
 C         3.1777173850       -1.9442697417       -2.8613244695
 C         3.8437552286       -3.2985161956       -2.5081933513
 C         3.2373958000       -4.0229314259       -1.1726243919
 C         1.6458256999       -4.0123576104       -1.2051013063
 C         0.9668624797       -5.2422278907       -1.7398967462
 C         3.8149457183       -5.4847772949       -1.0516385208
 C         3.6930262226       -3.2340512963        0.0002982215
 O         4.7756146367       -3.8308407652       -3.0876664684
 O         1.0509038861       -3.0590009575       -0.7369763528
 C        -0.5278492695       -4.9983069281       -2.1671361012
 C        -0.6306106169       -3.7866697390       -3.1901184403
 C        -2.1096878944       -3.2487683072       -3.3811205238
 C        -2.2655921889       -2.3348348281       -2.2167095922
 C        -1.6239429289       -0.9381842967       -2.2173618430
 O         0.2871077876       -3.3058804126       -3.7316787711
 O        -2.8869247083       -2.5214241973       -1.1712971277
 C        -2.2437129798       -2.4473638400       -4.6697427733
 C        -3.1395738486       -4.3866027832       -3.3865155825
 H        -8.7323204277       -0.3929631035        1.4895506402
 H        -7.3947655394       -0.0594718247        2.6202247272
 H        -7.7337385977        0.9523608895        1.1818178257
 H        -7.5879310872       -4.3490243286        2.5733825980
 H        -6.5066043736       -5.2860079113        1.3643688468
 H        -8.8789249449       -2.7319505791        1.2634426695
 H        -8.2761524764       -3.9644833959        0.1538921354
 H        -8.7069134818       -2.2758050351       -0.4188481528
 H        -6.5496574921       -3.6141706702       -1.2643433186
 H        -6.3986574900       -1.8509704331       -1.6348466340
 H        -5.0960574945       -2.5690690844       -0.8620471966
 H        -6.1391221882       -6.0406493144        3.6006854870
 H        -4.7125286647       -5.2542453457        2.7812872991
 H        -3.6074664413       -1.7961679914        5.0642078471
 H        -2.8147368563       -2.2365822238        6.4505580281
 H        -5.1118546517       -4.9255089266        7.3139788167
 H        -4.6696782836       -3.3719729575        6.8417672477
 H        -3.4747801903       -4.8134485241        7.3849151226
 H        -4.1046936528       -6.8133535496        5.8116185183
 H        -4.0006576652       -6.4804923962        4.1250157843
 H        -2.5535150793       -6.1287454394        5.2821783998
 H        -0.7412616433       -2.3485102138        4.5777382398
 H        -1.2349909440       -0.9034167181        5.5960994649
 H         0.2351170406        2.4327347485        2.7039543811
 H         1.1473173339        1.5992689316        1.3924327267
 H         1.6085264864        0.5573852242        3.1937398028
 H         0.9829074441       -0.7001187995        4.4023568742
 H         0.2881799128        0.8650295088        4.3301068852
 H         1.1808523097       -1.4428689492        1.7592519903
 H         0.2009034934       -2.4419419880        2.6957808686
 H        -0.3627940937       -2.0306931494        1.0765662703
 H         0.4696677175        3.3896639310       -0.0558296145
 H        -1.1914547281        3.0342768336        0.2835455732
 H         1.1810986661        7.9665506871       -0.3268920048
 H         2.2487225951        7.7488772361        1.0160158208
 H        -0.9412467191        5.4197639860       -1.2133445360
 H        -1.1887630629        7.0988414081       -0.6412589171
 H        -2.3067064389        5.6868962940       -0.1383404407
 H        -1.3507231029        7.0326321591        2.2702883351
 H         0.3926843420        6.8960653395        2.8204306595
 H        -0.2356589191        7.9905709700        1.5043635780
 H         3.7690075023        6.3775010497       -0.5986492350
 H         3.6132714319        8.2126402923       -0.8978387608
 H         3.5391668192        4.5144332350       -1.8688151698
 H         3.9649103581        4.6289831235       -3.5317620604
 H         4.0587029813        7.7004453645       -5.3113785995
 H         2.8307466463        6.6271581981       -4.9780880919
 H         4.3496606360        5.9300989541       -5.0545208935
 H         5.3786923131        8.6380003139       -2.3984388682
 H         5.5800920256        8.5461334130       -4.0865507681
 H         4.0837260963        9.3908944905       -3.3230601877
 H         6.3256306630        4.0633140301       -2.7458254350
 H         5.6493326105        3.6128210673       -1.1063176162
 H         3.8892673813       -0.1391004894       -3.9518720147
 H         5.1517693939       -1.3622747144       -3.5794415452
 H         7.1255285767       -0.6385905308       -2.8699458924
 H         7.8842254914        0.8754375321       -2.5700238715
 H         6.7807836014        0.7990565911       -3.9515016166
 H         6.0081157274        0.2909933885        0.1781430909
 H         7.2636691626        1.4517363287       -0.3261169519
 H         5.6965096796        2.0588932269       -0.1066105952
 H         2.4953931715       -2.1427748409       -3.7996268514
 H         2.3662343823       -1.5419079909       -2.2187192608
 H         1.5357607926       -5.6282496097       -2.6288792804
 H         1.0798500574       -6.1333753469       -1.0353904965
 H         4.8103957859       -5.5189289437       -1.3530742903
 H         3.3627622545       -6.2130078457       -1.6780735311
 H         3.7355164499       -5.8254754768       -0.0355242932
 H         4.6344414885       -3.6951883121        0.2862406497
 H         3.8494306129       -2.1833043478       -0.2558060014
 H         2.9914266662       -3.2168628870        0.8292412898
 H        -0.9122071961       -5.8470987574       -2.6836053344
 H        -1.1252810963       -4.8021179338       -1.2693851297
 H        -0.8458668164       -0.9683690383       -1.5308037699
 H        -1.0947892208       -0.8709416906       -3.1897809228
 H        -2.3346375506       -0.1923967840       -1.9131458200
 H        -1.8979303252       -1.4191623999       -4.7488442066
 H        -3.3094933159       -2.3995799299       -4.8402239125
 H        -1.9498649126       -3.0545909771       -5.4829248754
 H        -2.8544451544       -4.9710165254       -4.2919062991
 H        -3.0886307205       -4.8796831941       -2.3756213531
 H        -4.0894843999       -4.0254540927       -3.5150954730
 Na       -3.3034576154       -1.3309827035        0.7970423422
