155

 C        -7.7330368506       -0.2544742183        1.4404567127
 C        -6.6090687564       -0.9191324176        0.6750156591
 C        -6.8427936496       -2.4793107932        0.2347532388
 C        -5.9426585875       -3.3016893928        1.2878198222
 C        -6.6760717592       -4.3541803074        2.1738524651
 C        -8.2599019205       -2.9327840757        0.1328810186
 C        -6.1234577719       -2.7708856807       -1.0413802303
 O        -5.5328108914       -0.3904212986        0.6514182567
 O        -4.7162906550       -3.2404566212        1.2507838531
 C        -5.6845424452       -5.1969152201        2.9383514637
 C        -5.1831438371       -4.3732234471        4.1766431742
 C        -4.1473045419       -4.8544145669        5.2940824030
 C        -2.9194985222       -3.9886092143        5.0227144898
 C        -2.9438105774       -2.4939993382        5.3851818160
 O        -5.4480557254       -3.2087107325        4.2556091923
 O        -1.9622129531       -4.4359091575        4.3812654710
 C        -4.6877366374       -4.5007588248        6.6852206992
 C        -3.8224178980       -6.3107948518        5.1009820004
 C        -1.7095493977       -1.7279894208        4.9416833463
 C        -1.8568095106       -0.9834036901        3.6474182618
 C        -0.5539230134       -0.4131846774        2.9906615366
 C        -0.7774426542        0.6796616386        1.8524497324
 C        -0.0716052337        2.0190765135        1.9603188258
 C         0.5135511745        0.0657130124        4.1298562027
 C         0.1565328426       -1.6061932532        2.2932751384
 O        -2.8739063735       -1.0608862685        3.0097871353
 O        -1.5681053457        0.4277020853        0.9478213230
 C        -0.3143999244        3.0746993172        0.8915106663
 C        -0.4644668212        4.4544707272        1.6291026489
 C        -0.1270592420        5.7346671918        0.8943798417
 C         1.4209356630        5.9599199552        0.3285552886
 C         1.8312432999        7.4529245997       -0.0251142445
 O        -0.8855853043        4.5015740984        2.7821372365
 O         2.0470695180        4.9846872601       -0.0647568160
 C        -1.0287367604        5.8880439239       -0.3856926657
 C        -0.2925666906        6.9039290300        1.8562354287
 C         3.1041875917        7.6341069113       -0.8071090213
 C         2.8055909300        7.5479641070       -2.3486479864
 C         4.0938953979        7.4810127521       -3.3208196233
 C         5.0918502637        6.2613862810       -2.9049685701
 C         4.6399219399        4.8373717340       -3.1402206518
 C         3.6311743324        7.2173889730       -4.7925571796
 C         4.9767689669        8.8678900879       -3.3036654418
 O         1.6772149624        7.4848884987       -2.7277536932
 O         6.1381686157        6.5547269010       -2.3914220398
 C         5.5337095860        3.8646281228       -2.3774560599
 C         5.0582739595        2.3718614749       -2.6511946341
 C         5.7552311763        1.0736423748       -2.0489068480
 C         4.6767764994        0.0034084274       -1.7627161463
 C         4.0124482083       -0.8061414641       -2.9641951465
 O         4.2399584527        2.1906480160       -3.5168979084
 O         4.3249444015       -0.0514836968       -0.5932480609
 C         6.8100174160        0.6694304406       -3.1759902636
 C         6.5263929253        1.4183307247       -0.7380920647
 C         3.0096717132       -1.9211420009       -2.4879579312
 C         3.7792184369       -3.2172580834       -2.2256522372
 C         3.2603014431       -4.1361977649       -1.0394740718
 C         1.7455037831       -4.3071584605       -1.0731505117
 C         1.1274513213       -5.3762212910       -1.9262483535
 C         3.9348663425       -5.5614319382       -1.1193891234
 C         3.7907986102       -3.3747049164        0.2817431699
 O         4.5604949620       -3.6410943032       -3.0169639995
 O         1.0502236958       -3.4848759070       -0.5020376566
 C        -0.4279428314       -5.2027655900       -2.0244244831
 C        -0.6419410916       -3.9550871130       -2.9340425747
 C        -2.0521085418       -3.4419095014       -3.2600053160
 C        -2.3153146997       -2.3541278191       -2.2020771509
 C        -1.5679317076       -0.9510742011       -2.3208610547
 O         0.3088009206       -3.4158547251       -3.4240276276
 O        -2.9991931482       -2.4636291006       -1.1991761328
 C        -1.9373594198       -2.7678197520       -4.6798116510
 C        -3.0836889350       -4.5783940100       -3.1868483655
 H        -7.6675643016       -0.7325627577        2.4416697822
 H        -7.4824211680        0.7977141724        1.6699159674
 H        -8.7182809527       -0.3736732367        1.1447392418
 H        -7.4187696844       -3.8982782583        2.8731760089
 H        -7.1222113413       -5.0158915463        1.4481860147
 H        -8.8615239968       -2.7849734057        1.0708091102
 H        -8.3513851790       -3.9307039246       -0.2361305158
 H        -8.6908581564       -2.2466272540       -0.5967126597
 H        -5.7702177808       -3.8069321743       -1.0034749404
 H        -6.8224946645       -2.7193794058       -1.8327296950
 H        -5.2240400607       -2.0979771661       -1.2865792506
 H        -6.1227166946       -6.0908320891        3.3006060290
 H        -4.8868952790       -5.5304272391        2.3231196906
 H        -3.8023248463       -2.1322494989        4.8114446389
 H        -3.2242281735       -2.3597880560        6.4213995859
 H        -5.2786009912       -5.2913539882        6.9822319614
 H        -5.2051045297       -3.5373577673        6.5861663724
 H        -3.8446582826       -4.5428324225        7.4508475129
 H        -4.7756160498       -6.7649934130        4.9422818696
 H        -3.2203612278       -6.3500336126        4.1211664973
 H        -3.2478764600       -6.6308688807        5.9785796275
 H        -0.8971114423       -2.4410291967        4.8451006786
 H        -1.6215218904       -1.0132721216        5.7170623182
 H        -0.5083468454        2.4467203415        2.9093796844
 H         1.0443680797        1.9889436334        1.9749787977
 H         1.4050242253        0.5133913023        3.6526385660
 H         0.8110077695       -0.6165599776        4.8638050566
 H         0.0788973238        0.9056158547        4.6594448002
 H         0.9876225569       -1.2331278715        1.5836634965
 H         0.8133970234       -2.1545395018        3.0405657293
 H        -0.4927379132       -2.1803414930        1.6371634582
 H         0.4070399063        3.0095123286        0.0958378279
 H        -1.3278798310        2.9632742146        0.4514964868
 H         0.9315998090        7.9468757520       -0.4213028464
 H         1.9393424619        8.0489990225        0.8967181743
 H        -1.2861219929        4.8789080648       -0.7632436498
 H        -0.6093536197        6.5998622321       -1.1263163949
 H        -1.9364061238        6.4448325917       -0.1696228380
 H        -1.1531562235        6.8806508186        2.3639452508
 H         0.4763805788        6.9021860893        2.6055671586
 H        -0.2905106841        7.8402048106        1.2442542586
 H         3.8017668111        6.7709199025       -0.6222262539
 H         3.6350826048        8.5317066457       -0.4587626292
 H         3.6855624270        4.7267708192       -2.8138588772
 H         4.6614255580        4.6435438842       -4.2134414634
 H         4.4968134019        6.8276611433       -5.4484245031
 H         3.0802514114        7.9722600242       -5.3230148176
 H         2.9348940307        6.3762397718       -4.7774751654
 H         5.3336794279        8.9665347253       -2.2888695543
 H         5.8475721475        8.8938821088       -3.9137049451
 H         4.4220950037        9.7309199335       -3.5908348416
 H         6.5488573795        4.0997938195       -2.5707636168
 H         5.3759933517        3.9459316341       -1.2538077405
 H         3.4008665120       -0.0795416595       -3.5709984772
 H         4.5865754352       -1.2360406468       -3.7618191988
 H         7.4333390524       -0.0764548311       -2.6516772765
 H         7.3780120417        1.5629521368       -3.4279270770
 H         6.3599504443        0.1383754378       -4.1281960313
 H         7.5657092743        1.0779008016       -0.6640868556
 H         6.5393662909        2.4359247646       -0.5051172987
 H         6.0114663844        0.9811066935        0.0873612406
 H         2.1426509474       -2.0802148253       -3.2072380136
 H         2.4721869549       -1.6046954400       -1.5928391898
 H         1.5150564888       -5.3047433464       -2.9800652200
 H         1.3122185998       -6.4100689719       -1.5468258376
 H         4.8470051801       -5.8770673673       -0.5188225393
 H         4.0864388718       -5.9078864973       -2.1764857034
 H         3.1606220706       -6.2111344515       -0.5992467967
 H         4.6295005527       -2.7138325633        0.0182938764
 H         3.0504701349       -2.9609826800        0.9369576998
 H         4.1995361173       -4.1392817515        0.9613077578
 H        -1.0204773956       -6.0631195983       -2.2898821040
 H        -0.7353949879       -4.8727665835       -1.0160164357
 H        -1.0631168225       -0.7996330146       -1.3702650496
 H        -0.7223977952       -1.0669032751       -3.0110334617
 H        -2.2894080982       -0.1524133716       -2.4372988013
 H        -1.2865555495       -1.8925097305       -4.7410385809
 H        -2.8962296682       -2.4492994252       -5.0894661803
 H        -1.3918562365       -3.4134238864       -5.2867023491
 H        -2.7079962654       -5.4237299776       -3.7343322375
 H        -3.2546411135       -4.6752393511       -2.0908443797
 H        -3.9717261966       -4.3526597744       -3.7222771055
 Na       -3.3979751065       -1.0608479252        0.6648464160
