155

 C        -7.1695840343       -0.8607150913        1.7798432632
 C        -6.1905454607       -1.0306243693        0.6585522222
 C        -6.4853144204       -2.2082584218       -0.2938434432
 C        -5.8519482191       -3.4456242313        0.4358188426
 C        -6.6415912237       -4.4779107697        1.2750050703
 C        -7.9407652706       -2.4394177023       -0.7157115132
 C        -5.7394073743       -2.0585429155       -1.6414767256
 O        -5.1156333570       -0.4346052108        0.6347832073
 O        -4.6295975184       -3.3627377241        0.4987176719
 C        -5.7434740580       -5.2264756901        2.2821763856
 C        -5.5514071747       -4.2598129160        3.5108565614
 C        -4.7567038153       -4.6585914190        4.8730100563
 C        -3.4382866180       -3.7811289242        4.6707497837
 C        -3.4504275548       -2.3410917129        5.1561764056
 O        -5.9413819180       -3.0783975078        3.5551299451
 O        -2.3943283878       -4.3018422383        4.3342103734
 C        -5.6917414917       -4.2967846976        6.0885529529
 C        -4.3858227322       -6.1420716520        5.0469802021
 C        -2.1540613602       -1.6364445185        4.8825038627
 C        -2.0360160473       -1.2763476223        3.4366392919
 C        -0.8224258536       -0.4922300569        2.9291628270
 C        -1.3177098450        0.7895802567        2.1710227132
 C        -1.5183265878        2.0239508267        3.0627172796
 C         0.2225073744       -0.0819325513        3.9899447129
 C        -0.1327845249       -1.4140802384        1.8035064377
 O        -2.9708007768       -1.5284919216        2.6774786966
 O        -1.6200655008        0.7718921378        1.0008470704
 C        -1.7499376654        3.2575979246        2.1800048503
 C        -0.4972535870        3.8149669892        1.5910059068
 C        -0.6099164950        4.8103831469        0.3364845865
 C         0.7953480165        5.3353250306       -0.1929865823
 C         1.2368807619        6.5792815963        0.4675684427
 O         0.5939957557        3.5310165553        2.0175436837
 O         1.5706261715        4.6550430295       -0.8370267784
 C        -1.2053139746        3.9690817422       -0.8090554316
 C        -1.5816568910        5.8913671235        0.6869628133
 C         2.5535928620        7.1840168013       -0.1270822990
 C         2.2697336737        7.5856119063       -1.6422018312
 C         3.5702499548        7.7367635207       -2.5613441118
 C         4.5814463675        6.4831293577       -2.7001737773
 C         3.9311827659        5.1077510790       -2.7396586724
 C         3.0405608709        8.0836762110       -3.9827473854
 C         4.3975304758        8.9997734163       -1.9462030339
 O         1.1805325868        7.8977366742       -2.0117017339
 O         5.7752149991        6.6802455586       -2.7172952979
 C         4.9648946326        3.9573835475       -2.7447678841
 C         4.2967736116        2.6225087581       -2.7749308693
 C         5.2457161515        1.3724263044       -2.7250803132
 C         4.9883114810        0.4353388865       -1.4379791675
 C         3.5915793105       -0.1715337324       -1.3136622289
 O         3.0549647139        2.6035873689       -2.8470516433
 O         5.7834513094        0.2617620514       -0.5326928478
 C         5.0491884105        0.4830666823       -3.9997892024
 C         6.7857654873        1.6795017985       -2.6410164676
 C         3.7428530990       -1.2979620186       -0.2122305973
 C         4.3517513969       -2.6260118737       -0.7790764927
 C         3.9177080755       -3.9964021367       -0.0880609236
 C         2.5000791910       -4.2650763136       -0.7087977208
 C         2.3032209668       -5.3907705280       -1.7468491146
 C         4.9911307448       -5.0592533348       -0.3324936617
 C         3.8410981624       -3.8653098486        1.4668938553
 O         5.0670817700       -2.7125088263       -1.7579131320
 O         1.5193928449       -3.6840414213       -0.2888915342
 C         0.9746233397       -5.3407621424       -2.5304171652
 C         0.5632571686       -3.8579310988       -3.0749089557
 C        -0.8382198903       -3.5073050091       -3.3564513262
 C        -1.2775902141       -2.4095628981       -2.4124126674
 C        -0.5702434415       -0.9892539431       -2.3965740164
 O         1.4690770683       -3.1283743051       -3.4392081717
 O        -2.0473990534       -2.6190424744       -1.4822547006
 C        -0.9148059856       -3.0874919982       -4.9068237447
 C        -1.7771228230       -4.6708984395       -3.2149026755
 H        -7.9616642803       -0.1668761256        1.6094152924
 H        -7.7681514455       -1.7782687061        1.7591697520
 H        -6.7521161231       -0.5843574527        2.7681587840
 H        -7.4129324894       -3.8633547928        1.8037075631
 H        -7.1987981536       -5.2070404232        0.6849860294
 H        -8.5405235365       -2.5811314911        0.1416066741
 H        -8.0295989778       -3.3535300823       -1.3227657215
 H        -8.3849486348       -1.6858302441       -1.3448446848
 H        -6.0624343400       -2.7816853939       -2.4054407860
 H        -5.9907862362       -1.0395155785       -2.0172752395
 H        -4.6375278180       -2.1840428027       -1.5909138778
 H        -6.2426648792       -6.2370894653        2.5582201112
 H        -4.7514432604       -5.2267912125        1.6718562808
 H        -4.1723865818       -1.7457159562        4.6884853705
 H        -3.6104462477       -2.3538785730        6.3031726614
 H        -6.5754878735       -4.9935655982        6.2218770924
 H        -6.0782771769       -3.2901725027        6.0006286933
 H        -5.0740437317       -4.3266066199        6.9882818156
 H        -4.6158803399       -6.5290207629        6.0236405136
 H        -4.8497026735       -6.8799974602        4.3904001716
 H        -3.3357737021       -6.4200881126        4.7697648106
 H        -1.3603313097       -2.1394166030        5.4512400979
 H        -2.0609398881       -0.6669448488        5.4327987119
 H        -2.1718474493        1.7445896684        3.8817763374
 H        -0.5933327155        2.0972002585        3.7056196275
 H         0.9438768407        0.5951566367        3.4230506881
 H         0.6765322979       -0.9321686217        4.3868516507
 H        -0.1669842618        0.4506513824        4.7979260766
 H         0.9862374863       -1.2104006855        1.8431497922
 H        -0.2724482521       -2.4433972033        2.1449985641
 H        -0.4400562194       -1.0576970553        0.7966472640
 H        -2.5143794216        2.9476412038        1.5027946685
 H        -2.1791165001        4.0372984063        2.7864237575
 H         0.6089767995        7.4667370445        0.4529529639
 H         1.4479019879        6.2309889201        1.4342036993
 H        -0.4499053941        3.2943928605       -0.9683292777
 H        -1.3217759613        4.5182626182       -1.7095972103
 H        -2.1730176441        3.5463683905       -0.5269657479
 H        -2.5121410108        5.5030624285        0.9257576077
 H        -1.2136075242        6.4703345375        1.4856716805
 H        -1.6274405686        6.6386260643       -0.1101782379
 H         3.3584075219        6.3998725361       -0.1185989179
 H         2.9315565309        8.1526855172        0.4040984388
 H         3.2468517185        4.9911653763       -1.9044805798
 H         3.4298286604        5.0225458130       -3.6852515487
 H         3.8752121586        8.1682326080       -4.7190694920
 H         2.3479289972        8.8981888116       -3.9050371767
 H         2.4390082214        7.1340984986       -4.2596347511
 H         4.5809876015        8.8822714903       -0.9056847078
 H         5.2698591118        9.1935537617       -2.5066017497
 H         3.7014586468        9.7889152556       -2.1361997348
 H         5.4949222288        4.2233763209       -3.5979035854
 H         5.6886618287        3.9905377175       -1.8779691788
 H         2.9336713790        0.6659981770       -1.0021075858
 H         3.1434154888       -0.5772273620       -2.2002608968
 H         5.3461828470       -0.5705888184       -3.9175188791
 H         5.4827180181        0.9954257934       -4.8860275794
 H         3.9472346962        0.3946702314       -4.3003370291
 H         7.1928906831        1.5262401595       -3.5945645900
 H         7.0275796363        2.6453004584       -2.2236730377
 H         7.1976103077        0.9047321739       -1.9786567588
 H         2.7078393284       -1.4874539460        0.2195158393
 H         4.3391704458       -0.6321401809        0.5520920052
 H         3.1769035535       -5.3797236426       -2.4584415555
 H         2.4509464563       -6.3699429372       -1.2349761332
 H         6.0297290023       -4.6468809228       -0.0419909447
 H         4.9430167284       -5.4830790344       -1.3954396065
 H         4.8021893694       -5.9675970061        0.3464797931
 H         4.6210606574       -3.4448490932        2.0857418624
 H         2.9740755601       -3.1988895228        1.6625868334
 H         3.5377244276       -4.7894898030        1.9743510769
 H         1.0017672783       -6.1161286336       -3.3157878632
 H         0.2494144229       -5.6067473636       -1.7912022539
 H        -1.2050311454       -0.1664728022       -2.5873821439
 H        -0.0753626890       -0.8271890609       -1.4529481060
 H         0.3288466386       -0.8789841252       -3.0226840934
 H        -0.2803327652       -2.3361191278       -5.4624615155
 H        -2.0084843454       -2.8247160217       -4.9620444115
 H        -0.6516385784       -4.0347678877       -5.4803111620
 H        -1.4708551957       -5.5653612302       -3.9148582745
 H        -1.9505127563       -5.0228297987       -2.1717117093
 H        -2.7597869310       -4.4554678196       -3.5816029301
 Na       -2.9518321173       -1.1596543254        0.1289709628
