155

 C        -7.0102926370        0.1481005434        0.8900728296
 C        -5.9323336671       -0.7934020661        0.5400689321
 C        -6.3707997437       -2.0433217495       -0.2807696526
 C        -5.5807820346       -3.2575697453        0.3729165490
 C        -6.2803636400       -4.5236314425        0.8849905074
 C        -7.9424058009       -2.2285875227       -0.2637984497
 C        -5.7315786666       -1.8876599723       -1.7355063835
 O        -4.7832112578       -0.5786620179        0.7447572439
 O        -4.3389927045       -3.4084500221        0.3305546518
 C        -5.6207034241       -5.1344648758        2.1754881946
 C        -5.8873638728       -4.2420854463        3.3502272238
 C        -5.1901581523       -4.7183363223        4.7417131091
 C        -3.7523575538       -4.1122851862        4.7508257076
 C        -3.6104572865       -2.6462451131        5.2350737771
 O        -6.7081460521       -3.3263949187        3.2265588389
 O        -2.7987644032       -4.7023784168        4.2422146863
 C        -5.8563204863       -3.9700891689        5.9001719162
 C        -5.1560265436       -6.2421230773        5.0039336274
 C        -2.2821365300       -1.9986589862        4.9002937232
 C        -2.1201299690       -1.7060954445        3.3814745491
 C        -0.8620503299       -0.7204195532        2.9446549944
 C        -1.5137670054        0.4158626511        2.0649680008
 C        -1.9882036350        1.6356111934        2.8108128236
 C        -0.0494266623       -0.1851712235        4.1231663579
 C         0.0307016086       -1.5515617932        1.9351122186
 O        -2.9498492090       -2.1589588676        2.6378223370
 O        -1.7469764796        0.3159988800        0.8716677887
 C        -2.2957224023        2.9055652572        1.8635699021
 C        -1.0132607471        3.2397974797        1.0268891479
 C        -0.9579675706        4.4975527566        0.0207833045
 C         0.4850167421        5.1244732461        0.0891830800
 C         0.7598111385        6.5269226102        0.6990532236
 O        -0.0770219431        2.5025155703        1.1234004454
 O         1.3259531156        4.4644985249       -0.4782335238
 C        -1.1234110904        3.8003987755       -1.3732676028
 C        -2.1241814030        5.5986205017        0.3464237770
 C         2.0259021898        7.1346840730        0.1334795509
 C         2.0141160737        7.2181657968       -1.4650559694
 C         3.3506380688        7.4741288460       -2.2208919718
 C         4.2121361952        6.2149648774       -1.8516663500
 C         3.7541131555        4.8793057942       -2.4115841411
 C         3.2034881845        7.7644402215       -3.6754006724
 C         4.1380789580        8.6487730166       -1.6597792320
 O         0.9829754070        7.0242279768       -1.9980243277
 O         5.1622093768        6.2067830594       -1.1031517617
 C         4.8715079721        3.8415254011       -2.9746924511
 C         4.2796722730        2.4712159365       -3.3977545099
 C         5.2648953948        1.2590425177       -3.3184117792
 C         5.1470285608        0.8194021321       -1.8450763245
 C         3.8628933278        0.0812113273       -1.3701244986
 O         3.0534893094        2.3311034380       -3.5377637783
 O         5.9698868290        1.2430006762       -1.0863626908
 C         4.8134936785        0.2187965998       -4.3790627231
 C         6.6649288433        1.7190412748       -3.8027585755
 C         4.1661387919       -0.7923803402       -0.1348982022
 C         4.7082357112       -2.2243312486       -0.3536811694
 C         4.3065597248       -3.4148054534        0.4954117485
 C         3.0040078745       -3.7239062178       -0.2464106326
 C         3.0629215817       -4.5042766691       -1.5439385668
 C         5.3301467874       -4.6349138770        0.4188325340
 C         3.9339306267       -3.1988738893        2.0472126043
 O         5.3332941772       -2.4706041382       -1.3676505554
 O         1.9330428430       -3.2868307293        0.1248122681
 C         1.6921138618       -4.5859134374       -2.1973307963
 C         1.2230953353       -3.2183383114       -2.8998986385
 C        -0.3831098118       -3.0016994912       -3.4556348172
 C        -0.9694680331       -2.1022103716       -2.3132513563
 C        -0.1210673283       -0.9879140447       -1.8469885520
 O         2.0675792493       -2.3688115914       -3.1565174658
 O        -1.9981572791       -2.4551790955       -1.7312677502
 C        -0.1977395005       -2.1960547665       -4.7942088789
 C        -1.1502087229       -4.3080909967       -3.5600489105
 H        -7.5415207385        0.3709994621       -0.0166293080
 H        -7.6928659172       -0.2783512165        1.6177095770
 H        -6.6862314486        1.0981986123        1.4135647188
 H        -7.4161534411       -4.4906988239        0.9496480292
 H        -6.0412767390       -5.3138759696        0.1306742630
 H        -8.4411084045       -2.2655461564        0.6928333487
 H        -8.1463859129       -3.1947605346       -0.7726175677
 H        -8.5180410484       -1.4509984445       -0.8036607810
 H        -5.8076300268       -2.8507488942       -2.2711496273
 H        -6.0579273559       -1.0813268023       -2.3982635561
 H        -4.6603672029       -1.6792975263       -1.5408773006
 H        -6.0595402868       -6.1065955723        2.2813380067
 H        -4.5464568792       -5.3617150165        1.9819575039
 H        -4.5315167344       -2.0779884730        4.8565608127
 H        -3.7046840882       -2.6563533331        6.3649618430
 H        -6.9035535956       -4.3541335931        6.1050853377
 H        -5.9698813010       -2.9559871632        5.6305130393
 H        -5.4928599660       -4.0553259719        6.8763584313
 H        -5.3268417382       -6.4693385589        6.0950271934
 H        -5.7848299371       -6.8512805219        4.3380765532
 H        -4.1483097844       -6.6253875489        4.8412700379
 H        -1.4715187320       -2.7673367075        5.0704806838
 H        -2.0990820748       -1.0811105119        5.4640872923
 H        -2.8396561979        1.3134760054        3.4653630046
 H        -1.1494839369        1.9238665105        3.4853518163
 H         0.6638060286        0.6366759216        3.8654097997
 H         0.5950907365       -0.9275003748        4.5252868100
 H        -0.6029542080        0.2378096992        4.8614477492
 H         0.4612800986       -2.3208784293        2.6217464059
 H        -0.5531962906       -1.9256851873        1.1010750512
 H         0.7953238177       -0.9568578613        1.3475461567
 H        -3.1747467322        2.8704025869        1.2314762288
 H        -2.3778729333        3.8232534630        2.4489865784
 H        -0.0237770146        7.2438420331        0.5160216859
 H         0.7999096938        6.5503240082        1.7925168353
 H        -0.5974592539        2.8752670102       -1.3140381901
 H        -0.8346642841        4.4559769135       -2.1719606409
 H        -2.1364498727        3.5328455684       -1.5190862887
 H        -3.1414800404        5.2379779878        0.2640756438
 H        -2.0539322804        6.0563472815        1.2762188541
 H        -1.9457147597        6.3480458703       -0.4042426545
 H         2.9086030860        6.4807436793        0.2795112003
 H         2.3627663689        8.1555903240        0.2964621212
 H         3.2513398337        4.2259554249       -1.6876306509
 H         2.9880644064        4.9970999705       -3.1903762578
 H         3.5175649089        8.7958339903       -3.8399161197
 H         2.1366621728        7.7380424423       -3.8824366292
 H         3.6190632274        6.9719586742       -4.3985155291
 H         4.5896290517        8.4300827005       -0.7004204628
 H         4.9700380384        8.8074858279       -2.2875601132
 H         3.5652660207        9.5419040591       -1.6358248587
 H         5.4785772106        4.1515573090       -3.8606553170
 H         5.6216063674        3.6726046551       -2.2412003906
 H         3.1546861225        0.9080263005       -1.0830369865
 H         3.3073887269       -0.5322639312       -2.0773111405
 H         5.0677054980       -0.8175914928       -4.0790123933
 H         5.2298218775        0.4976316353       -5.4118224837
 H         3.7141303685        0.2671707398       -4.4420712477
 H         6.6542218502        2.4198714571       -4.6351028937
 H         7.1906502633        2.0893922462       -2.8830958519
 H         7.2729288081        0.8316618625       -3.9997166904
 H         3.2230770664       -0.8041287825        0.5025136262
 H         4.6735946968       -0.2017791493        0.6541517979
 H         3.7964865699       -3.9039068833       -2.0414299907
 H         3.4815504004       -5.4457670426       -1.2525977864
 H         6.0797368696       -4.4158903168        1.2172629163
 H         5.7715961900       -4.6966653606       -0.5879042487
 H         5.0266735336       -5.6268530942        0.8129334833
 H         4.6757785653       -2.7456266266        2.6892831660
 H         3.0799079453       -2.5610754488        2.0602815686
 H         3.5580271565       -4.1164801948        2.4899251269
 H         1.7317912524       -5.3940790348       -2.9200095553
 H         1.0598117985       -4.8272933385       -1.3271225043
 H         0.8691034209       -1.0602113937       -1.5813034946
 H         0.0764459994       -0.4161345710       -2.7690439461
 H        -0.7319847913       -0.3716233250       -1.2289262288
 H         0.8594975407       -1.8312563533       -4.7832406345
 H        -0.9311986391       -1.3331873977       -4.9674479006
 H        -0.3942054895       -2.8725222159       -5.7234335785
 H        -0.7613460247       -5.0487259087       -4.3600846029
 H        -1.2238015403       -4.8951665682       -2.6580421516
 H        -2.1888997277       -4.1375752521       -3.8793804788
 Na       -2.7396722323       -1.7444550985        0.3510909069
