155

 C        -7.2038578897        0.0699826288        0.7854306950
 C        -6.2186319645       -0.9111168567        0.2062426578
 C        -6.5893054720       -2.2206220249       -0.4678450136
 C        -5.9438181637       -3.4609240834        0.2461752241
 C        -6.8158425344       -4.5086652491        0.9518318236
 C        -8.0291104005       -2.3362521211       -0.7826747022
 C        -5.9100860324       -2.1956769155       -1.8321331620
 O        -5.0222538730       -0.6345530521        0.3927421599
 O        -4.7512317107       -3.5876095800        0.2388061020
 C        -5.9499866480       -5.1790483338        2.0998726265
 C        -6.0481646398       -4.3149326802        3.4173046862
 C        -5.4109086784       -4.7700003662        4.7864269494
 C        -3.9915975397       -4.1642845138        4.7027516091
 C        -3.9157757833       -2.6781102600        5.0510567653
 O        -6.5218452694       -3.2242752648        3.3413911276
 O        -2.9654479021       -4.7498695302        4.3610638288
 C        -6.2697314031       -4.1308458535        5.9285515655
 C        -5.4195817097       -6.2525921891        5.0279995574
 C        -2.4393658126       -2.1546043146        4.8988428421
 C        -1.9720677538       -1.8953479324        3.3505563515
 C        -0.9080065431       -0.8065210249        3.1341862244
 C        -1.5206235636        0.4040283635        2.3185180719
 C        -1.5871462896        1.8045899027        2.9876616493
 C        -0.2488311466       -0.3627849533        4.4581528208
 C         0.2937642112       -1.3903227337        2.2481159338
 O        -2.5028516678       -2.4780942751        2.4304458725
 O        -2.1706293286        0.1374392578        1.3322533077
 C        -2.0806103804        2.7253323423        1.8450056108
 C        -0.8977776076        2.9856817057        0.8150450744
 C        -1.0348494145        4.2280706267       -0.0707225858
 C         0.2475108331        5.0366205823        0.1797301853
 C         0.1874067003        6.5101683473        0.6094713590
 O         0.0550642812        2.2307470341        0.8006783230
 O         1.2900462287        4.4583971245        0.0851271355
 C        -0.9687621151        3.7565531047       -1.5108142515
 C        -2.3847298082        5.0358015934        0.0726422225
 C         1.4977122462        7.1906900066        0.1751323091
 C         1.7712472821        7.0150600435       -1.3723922873
 C         3.2093194695        7.3119464607       -1.8382124225
 C         3.9835807979        5.9554946865       -1.6875944569
 C         3.5069176167        4.5967830790       -2.4203547796
 C         3.1170608454        7.7693646833       -3.2490122890
 C         3.8802337799        8.2625779627       -0.8219283018
 O         0.8769057638        6.7947663309       -2.1421655518
 O         5.0721873919        5.9931846864       -1.1439395377
 C         4.6715637282        3.6379959557       -2.6646538336
 C         4.3250413523        2.4959997895       -3.6996363053
 C         5.2874846562        1.1768996782       -3.7131332566
 C         5.4148776858        0.7429600544       -2.1629052228
 C         4.0171048578        0.3651049314       -1.5137528594
 O         3.3101714442        2.4930556180       -4.4089560031
 O         6.4582389287        0.9381997990       -1.6158713425
 C         4.7223076643        0.0108571146       -4.6077354665
 C         6.7713657816        1.6291720439       -4.1322026895
 C         4.0637719093       -0.5324082340       -0.2337658118
 C         4.8929019190       -1.7858064095       -0.2611480503
 C         4.4660491972       -2.9948695108        0.6045259659
 C         3.1132051593       -3.5132248635       -0.0094884990
 C         3.1715047571       -4.3652281541       -1.2676206802
 C         5.5849256640       -4.1451153137        0.6926184853
 C         4.1100419223       -2.4888142012        2.0053102400
 O         5.9216729021       -1.9666358500       -0.8603345048
 O         2.1134800509       -2.8952321136        0.3797368115
 C         1.7748750305       -4.2906959781       -2.0372530129
 C         1.6437697658       -2.9904032920       -2.7800868327
 C         0.2196905751       -2.5483007200       -3.5013316200
 C        -0.5434830082       -1.8548897114       -2.1799558587
 C        -0.1939130147       -0.4722517706       -1.8344742434
 O         2.5936176437       -2.2746173766       -3.0009346309
 O        -1.3045932501       -2.6409553884       -1.6069488545
 C         0.4509000921       -1.6047714155       -4.7178742084
 C        -0.5806015122       -3.8301636293       -3.9172038119
 H        -8.0993912398        0.1913167724        0.1409549966
 H        -7.5136892383       -0.2563270727        1.7549025945
 H        -6.7809766829        1.0759034504        0.9452996908
 H        -7.7924084689       -4.2167700361        1.3264408593
 H        -7.1428812799       -5.2936567651        0.1528380260
 H        -8.6763577814       -2.3257206106        0.1412054979
 H        -8.2345659421       -3.2504116318       -1.3143820283
 H        -8.2573780146       -1.5350964062       -1.4851446007
 H        -6.2807470496       -3.1197728306       -2.3364582000
 H        -6.1792937989       -1.3136046096       -2.4757361229
 H        -4.9019798260       -2.0657912803       -1.7313793795
 H        -6.2279506767       -6.1655355807        2.3904572571
 H        -5.0148127945       -5.4273153560        1.7410759736
 H        -4.7760683995       -2.3011881550        4.4603610408
 H        -4.2356899865       -2.6219433948        6.0286349130
 H        -7.3668458508       -4.2350528382        5.8339597944
 H        -6.2627715080       -3.0377882269        5.9210060966
 H        -5.9931934714       -4.5152743374        6.9247103585
 H        -5.7104584623       -6.5235786453        6.0999925714
 H        -6.2516445175       -6.7523429157        4.4516479607
 H        -4.4309026276       -6.6379119893        4.8964189285
 H        -1.6961279072       -2.7936022017        5.3189900433
 H        -2.4499134791       -1.1239627646        5.2742849543
 H        -2.3079872611        1.8454486422        3.8105223341
 H        -0.5508892051        2.0451351506        3.2035944026
 H         0.5543391134        0.2833318653        4.3565231257
 H         0.1118650122       -1.2229423514        5.0562196615
 H        -0.9261703677        0.0510151713        5.2092613312
 H         0.5142176723       -2.4894954687        2.3973392068
 H         0.0154664915       -1.3731598472        1.1389328291
 H         1.2317293211       -0.7117764481        2.4449447310
 H        -2.9951523765        2.3828953557        1.2948790640
 H        -2.3465442047        3.7415045610        2.1688840375
 H        -0.7324356972        7.0210976439        0.2009991097
 H         0.1168784227        6.6402950882        1.7544619089
 H        -0.2387723744        2.9606518106       -1.6329849522
 H        -0.6091507051        4.5310618694       -2.1376909988
 H        -1.9292223022        3.5099777722       -1.7739947329
 H        -3.2187928496        4.2872686210       -0.2006293350
 H        -2.5256228503        5.5094601725        1.0216717605
 H        -2.4670671187        5.7522087750       -0.6625028645
 H         2.3348004715        6.9115250380        0.8154960542
 H         1.3285772527        8.2440159646        0.3165862478
 H         2.7670153880        4.0584019207       -1.8081588150
 H         2.8276014764        4.7853105411       -3.2783195920
 H         2.3586732294        8.4218662593       -3.4124986861
 H         2.9156117832        6.8763391762       -3.9241351470
 H         3.9893517520        8.2536024453       -3.5960077488
 H         4.1145475781        7.7491801630        0.0646624809
 H         4.8294113658        8.7625165716       -1.2107778729
 H         3.2574561471        9.2082659531       -0.6046746234
 H         5.5211572062        4.1786185424       -3.0725080441
 H         5.0031176609        3.3224753774       -1.6675757136
 H         3.6435923476        1.3260525829       -1.1392347058
 H         3.3743750592       -0.0925812174       -2.3439567466
 H         5.4613064910       -0.8843241006       -4.4809055121
 H         4.6501488527        0.3876630798       -5.6765523518
 H         3.7796955912       -0.3188045048       -4.2228595876
 H         6.7911551415        1.5097880805       -5.2550283859
 H         6.8678518089        2.7024864096       -3.9942358329
 H         7.6296572105        1.0668334347       -3.7734086556
 H         3.1137811915       -0.6296796099        0.2128782290
 H         4.6292373876       -0.0130340886        0.5601994519
 H         4.0199833964       -3.9482102542       -1.7137667862
 H         3.3216658242       -5.3974939289       -1.0149463102
 H         6.5816477351       -3.7606983985        1.0328406033
 H         5.8380291415       -4.6753470960       -0.2742891110
 H         5.1187246496       -4.9554883951        1.3796576729
 H         4.8988017297       -1.7571837971        2.1513160043
 H         3.1395147060       -2.0132193412        2.1795657960
 H         4.3942327190       -3.2257399495        2.7393083395
 H         1.7310758744       -5.1285266675       -2.7538752500
 H         0.9451569034       -4.5441746855       -1.3655599445
 H         0.7102415962       -0.2632349410       -2.3251873149
 H        -0.8127177056        0.3751661998       -2.1287119093
 H        -0.0614540465       -0.3866784410       -0.7438572448
 H         0.1526483538       -0.5793075921       -4.5542126635
 H        -0.1235834290       -1.9825050437       -5.6036793838
 H         1.5792234664       -1.4549251782       -4.7471163486
 H        -0.2847717209       -4.2490858548       -4.8370949782
 H        -0.6881197401       -4.4555756290       -3.0867895661
 H        -1.7183859047       -3.6635462665       -4.0667529415
 Na       -2.8957087784       -1.8549653604        0.1641031612
