155

 C        -7.4750037807       -1.1311923987       -1.0873554906
 C        -6.0430651768       -1.5627255924       -1.0003476557
 C        -5.6748962127       -3.0178411493       -1.4827126170
 C        -5.2720471741       -3.9101784746       -0.1655396824
 C        -6.0356767528       -5.2730919792        0.0179735129
 C        -6.8103444617       -3.6907720851       -2.2495986401
 C        -4.3905639718       -3.0363222846       -2.3147126373
 O        -5.2138774247       -0.8372391259       -0.4304531191
 O        -4.3149821587       -3.7307992974        0.5512543833
 C        -5.8331225229       -5.8274181102        1.4353844352
 C        -6.6325594813       -4.9312091147        2.4578710389
 C        -6.3413960100       -5.1155087005        4.0860690782
 C        -5.0191560937       -4.3558840708        4.4170479709
 C        -5.1994461169       -2.8725092497        4.8307325287
 O        -7.5454719661       -4.2224588518        2.0447607113
 O        -3.9222105910       -4.7973079582        4.2747637246
 C        -7.5837236713       -4.5907934337        4.9411408776
 C        -6.0311054070       -6.6051760532        4.2903808511
 C        -3.8245720029       -2.1970146789        5.0069858114
 C        -3.0891983328       -1.9878840454        3.6637026022
 C        -1.5520767722       -1.4776488025        3.5784747829
 C        -1.4910270955       -0.0828862149        2.8599488538
 C        -0.7739690462        1.1151108482        3.4885744980
 C        -0.8803649105       -1.3731650766        5.0703679529
 C        -0.6752572371       -2.4570181731        2.7296054508
 O        -3.6924442593       -2.1416898982        2.6404057540
 O        -2.0691950820        0.0428880774        1.8304792481
 C        -0.9940340765        2.4781859105        2.6158129288
 C        -0.0607063448        2.5400037077        1.3848357426
 C        -0.6948096775        3.0799920958        0.0994105670
 C        -1.0215546166        4.7702023286        0.5038084698
 C        -0.3236275683        5.9662073630       -0.2794192342
 O         1.0912335351        2.1632341909        1.4062675100
 O        -1.9860716917        5.1550258826        1.1337613268
 C         0.4103414618        2.9689288426       -0.9914962354
 C        -2.0285446008        2.4057685107       -0.2116185824
 C         1.1534656160        6.3923991262       -0.0881359046
 C         1.6074977917        7.2749824440       -1.4182006851
 C         3.0862418870        7.7733804855       -1.3771380114
 C         4.0262904282        6.4525319863       -1.6080793292
 C         3.6036961348        5.3061882854       -2.5748129145
 C         3.2314046412        8.8041147552       -2.5041836610
 C         3.5143015721        8.4763557918       -0.0416299052
 O         0.9250750366        7.2068477521       -2.4198114773
 O         5.0009182960        6.4041411735       -0.9487454870
 C         4.8508255892        4.5287760627       -3.1711207874
 C         4.3591509289        3.2050384485       -3.6588405803
 C         5.5093818805        2.2319043813       -4.2760825720
 C         6.2637697239        1.6538478629       -2.9306717433
 C         5.8294467488        0.3008835490       -2.3862927384
 O         3.2401553275        2.7760818534       -3.7177585427
 O         7.0218391985        2.3588305824       -2.2731693083
 C         5.0831513745        1.0995859016       -5.2090568004
 C         6.5829253620        3.1427878646       -4.9413575872
 C         6.2033385740        0.0559482896       -0.9006330841
 C         5.5968669251       -1.3426117721       -0.5212920008
 C         4.8103966563       -1.5866777501        0.8084438583
 C         3.3905598392       -2.2964545056        0.5174954805
 C         3.4485620510       -3.5758390454       -0.1247443349
 C         5.7167982849       -2.4322628441        1.8443457195
 C         4.4172130954       -0.2219192767        1.6074995056
 O         5.9122154351       -2.3283380101       -1.1363382387
 O         2.2829146646       -1.8074215691        0.7121040893
 C         2.2041053495       -3.9284676645       -0.9425085615
 C         1.8274818396       -2.7967235258       -1.8811434188
 C         0.4036345756       -2.8727181756       -2.4842170480
 C        -0.6131137748       -2.0959277455       -1.5856291043
 C        -0.3637502218       -0.6208121848       -1.4488106494
 O         2.5980908917       -1.9039462628       -2.1103494639
 O        -1.4137558047       -2.6743507165       -0.8364811777
 C         0.4051254284       -2.2998988830       -4.0340481230
 C        -0.0563605014       -4.3206485112       -2.6635890457
 H        -8.0084485671       -1.1505333911       -2.0125295788
 H        -8.1089566396       -1.6575987333       -0.3401049905
 H        -7.4569928623       -0.0759545152       -0.7223804176
 H        -7.0496860253       -5.0227329347       -0.1096741957
 H        -5.9587843848       -6.0874894931       -0.7169665854
 H        -7.8711429231       -3.6456566142       -1.9600863404
 H        -6.5412080790       -4.7316160101       -2.3806613828
 H        -6.8475259320       -3.2314054341       -3.2619939211
 H        -4.0190407660       -4.0085621136       -2.6321506157
 H        -4.4812888560       -2.3491147904       -3.1328613755
 H        -3.5342473267       -2.6862766376       -1.6638132589
 H        -6.3149588557       -6.8669218520        1.5525972159
 H        -4.8267567155       -5.8935177797        1.8008932904
 H        -5.6711858605       -2.2076201682        4.1272305576
 H        -5.7356478497       -2.7055324494        5.7298987029
 H        -8.1061774547       -3.7425725791        4.4075586895
 H        -7.3065977346       -4.3483143902        5.9787016634
 H        -8.4359752254       -5.2847729688        4.8706166642
 H        -6.1932705414       -6.6619852590        5.3942483699
 H        -6.5862039720       -7.2433374885        3.6271454315
 H        -4.9138220348       -6.6904451421        4.2113126789
 H        -3.2126245385       -2.6876584959        5.7768090627
 H        -4.0010823909       -1.1605439662        5.3934214822
 H        -1.0807190301        1.1463295685        4.5412952511
 H         0.3130816144        0.9210208341        3.5489000938
 H         0.1543053897       -0.9261420801        5.0377978413
 H        -0.8216069223       -2.3791299090        5.5230647724
 H        -1.4658302897       -0.7704503316        5.7831060660
 H        -0.6413546144       -3.5315689190        3.0844728797
 H        -1.2291142337       -2.4550129406        1.7334073035
 H         0.4199765675       -2.2505456181        2.5856345778
 H        -2.0499793772        2.5564054678        2.3236187122
 H        -0.7793154222        3.2171820244        3.3406617491
 H        -0.5124288302        5.7327605944       -1.3663738543
 H        -0.8897509833        6.8692454894       -0.0799262047
 H         1.3054207692        3.5655262938       -0.7544520691
 H        -0.0907882170        3.3731838733       -1.9168615323
 H         0.8030984458        1.9669578063       -1.2038084053
 H        -2.1284097669        1.4361338475        0.1566719196
 H        -2.7992331687        3.0062913319        0.2230397905
 H        -2.2009170769        2.4048627736       -1.3468687098
 H         1.7590133878        5.4600150494       -0.0511301785
 H         1.4283186840        6.9039284232        0.8838076191
 H         2.8660960199        4.6101724337       -2.1581395588
 H         2.9705038903        5.6970164756       -3.3458981862
 H         2.3361445379        9.4930299479       -2.3624902655
 H         3.3392375193        8.3571300863       -3.5193834485
 H         4.1086880085        9.2910561964       -2.2555496048
 H         3.0057461297        7.9820764481        0.7322285854
 H         4.6513680402        8.3690311208        0.1259044422
 H         3.1870195570        9.5914586037       -0.0367047524
 H         5.1442940272        5.0263346432       -4.0428948756
 H         5.7509639846        4.4979147590       -2.4600119165
 H         4.7716717339        0.3356060838       -2.4192123573
 H         6.1626897350       -0.4226228225       -3.1147364585
 H         5.8195859168        0.3255471981       -5.3724368766
 H         4.7560638037        1.5549429822       -6.1783564206
 H         4.1649242771        0.5203710723       -4.7908683391
 H         6.0964623374        3.9523080924       -5.5207215990
 H         7.2400363792        3.6187955640       -4.1578533240
 H         7.2260243184        2.5640013384       -5.6013430164
 H         5.8285937661        0.8640262064       -0.2508269011
 H         7.3007558373        0.0767100209       -0.6939175164
 H         4.3025800133       -3.7084087800       -0.8286217395
 H         3.7322535422       -4.3083007245        0.7325532972
 H         6.5626623843       -1.8118163420        2.1582777800
 H         6.0828175924       -3.3225024610        1.3541592385
 H         5.1954552899       -2.8007348362        2.6845691437
 H         5.2815042881        0.2729456615        1.9442452459
 H         3.9033125197        0.4616499469        0.9344884251
 H         3.7180272314       -0.5143531286        2.3331248221
 H         2.3061118155       -4.7547945477       -1.6395217594
 H         1.3559299325       -4.1426221270       -0.3200711626
 H        -0.5847614162       -0.0019341881       -0.5370686781
 H         0.6384901763       -0.3159635199       -1.7465074816
 H        -0.9343142513       -0.2530685762       -2.3548087847
 H        -0.6383504575       -1.9878599748       -4.2893998322
 H         0.9365012595       -2.9679269206       -4.6973930485
 H         0.9902410974       -1.4420889977       -4.1825808441
 H         0.7869333900       -4.9573677390       -3.0100982247
 H        -0.2302125261       -4.8060952049       -1.7111978328
 H        -0.9159730982       -4.2820608776       -3.2529637921
 Na       -3.2823772909       -1.6071894128        0.4230270113
