155

 C        -6.7425441833       -2.6990764932       -1.9853676193
 C        -5.3199111598       -3.2264498984       -1.8439409884
 C        -4.9764834191       -4.7286767462       -2.0971877369
 C        -4.9424013153       -5.4108536183       -0.5725787391
 C        -5.9881023271       -6.4498492129       -0.1471988913
 C        -6.0339109558       -5.3552373708       -2.9954875286
 C        -3.5962764736       -4.7735952917       -2.6552819525
 O        -4.4291600431       -2.4630926331       -1.4893403526
 O        -4.0134032766       -5.2028616838        0.1462587119
 C        -6.1903785694       -6.4224530933        1.3571403903
 C        -6.6979050443       -5.0702700647        1.7875180932
 C        -6.9793961683       -4.8236681453        3.2984367345
 C        -5.6323731986       -4.1768661778        3.9399792862
 C        -5.4206753389       -2.5690814874        3.7341526090
 O        -6.4928386870       -4.1167869869        1.0599027732
 O        -4.8475866505       -4.8644380921        4.4448042563
 C        -8.1362136872       -3.7365288117        3.4357787182
 C        -7.3671847150       -6.1380759195        4.0620249519
 C        -4.0186989649       -2.2367815290        4.2082399384
 C        -3.1101456694       -2.4522225502        2.9038864374
 C        -1.5913709422       -2.1198647928        2.9184481361
 C        -1.3194986144       -1.1933218110        1.6543966233
 C        -1.1133801650        0.2872709338        1.9337736739
 C        -1.1824859715       -1.5238648499        4.2847155840
 C        -0.9129013360       -3.4268132731        2.7410165095
 O        -3.6598174142       -2.6533076698        1.8480422038
 O        -1.2603839461       -1.6258373685        0.5426687657
 C        -1.9900001994        1.1471711909        0.9310981894
 C        -1.4287970254        1.4075165167       -0.4708308143
 C        -1.4762196241        2.9093545738       -1.0023128797
 C        -0.6880547152        3.9328808083       -0.0778445130
 C        -0.3526356693        5.3178393660       -0.5934306995
 O        -0.8948241290        0.5694112774       -1.1225931948
 O        -0.2084918250        3.5863397816        0.9385761524
 C        -0.8030061052        2.9127683858       -2.4506601274
 C        -3.0133761596        3.3305614075       -1.0407580073
 C         0.8431290933        5.9777836835        0.0542070896
 C         1.2142450781        7.3411668551       -0.5833074802
 C         2.6369367748        7.9547130576       -0.6122100133
 C         3.4273390665        7.0910034278       -1.7194658652
 C         4.6589052404        7.7043555410       -2.3276672923
 C         2.5060156739        9.3911194097       -1.0161441603
 C         3.3840535437        7.7051528995        0.7007935919
 O         0.3698617493        8.0248410477       -1.1730566006
 O         3.1399580780        5.8845782064       -1.8460693381
 C         5.8535498136        6.7859900342       -2.0106639323
 C         5.8143088762        5.5013915246       -2.8808942004
 C         6.3240494653        4.1166878157       -2.2047837328
 C         5.4241347395        3.9661346400       -0.9783224441
 C         3.9547046713        3.1434535401       -1.0697968692
 O         5.4482993518        5.5437143609       -4.0432391704
 O         5.5925398499        4.6318398298        0.0272617151
 C         6.2046049967        3.0292353881       -3.2987647531
 C         7.7866546602        4.2951425813       -1.7845779074
 C         3.6567839800        2.4617966530        0.2656550426
 C         4.2900319038        1.0913519514        0.4674474050
 C         3.9820165759        0.2052509773        1.7831999920
 C         3.4018177118       -1.1024136189        1.3678719578
 C         4.2340186920       -2.1558494936        0.5388735022
 C         5.3059603814        0.1620335881        2.4614328591
 C         2.8889415225        0.8414598867        2.7800251567
 O         5.1077763872        0.7093262395       -0.3332094595
 O         2.1960306614       -1.3363095065        1.5214119558
 C         3.4093851512       -3.2871222964        0.1367449595
 C         2.7600995312       -3.1109853507       -1.3340876041
 C         1.8400936797       -4.2256952099       -1.7984764670
 C         0.3492809099       -3.7676220786       -1.6593185263
 C        -0.1678691249       -2.6702879796       -2.5030409495
 O         2.8972827223       -2.1436340817       -2.0406181159
 O        -0.3510531689       -4.2883334209       -0.8449181577
 C         1.9784630649       -4.6728288805       -3.3085406185
 C         1.9479573172       -5.5397008113       -1.0079544666
 H        -6.8637706304       -1.6993859645       -1.4899645708
 H        -6.9073240400       -2.5721662190       -3.0424375996
 H        -7.5921282622       -3.3161394489       -1.6570738138
 H        -6.9732433185       -6.2324842045       -0.6545456449
 H        -5.7724590398       -7.4965170432       -0.4852793653
 H        -7.0393424096       -5.2357009404       -2.5361999747
 H        -5.9379174334       -6.3938444825       -3.2239672295
 H        -6.2789550059       -4.8064205699       -3.9015698299
 H        -2.9377024978       -5.0365174025       -1.8002036506
 H        -3.5382362536       -5.7070008330       -3.2992575388
 H        -3.2669600203       -3.9382099613       -3.2275899577
 H        -6.7730568697       -7.2110752943        1.7884396386
 H        -5.2202976035       -6.5482070526        1.9759623367
 H        -5.5404894705       -2.3711284145        2.6500737401
 H        -6.2818976556       -2.0141456591        4.2655009648
 H        -7.9757668262       -3.1459556501        2.5877675848
 H        -7.9821854184       -3.3272757795        4.4402854966
 H        -9.0833882332       -4.1369735243        3.2443627177
 H        -7.5582436303       -5.8514809912        5.1173333097
 H        -8.1567349316       -6.7099538558        3.6976666582
 H        -6.4395013372       -6.7224986106        4.1418498939
 H        -3.5259305657       -2.8781403410        4.9797092979
 H        -3.8313860138       -1.1568845480        4.4261174638
 H        -1.4772181745        0.6408417568        2.9061306744
 H        -0.0552975772        0.5398730640        1.8426944726
 H        -0.2000913893       -1.1490698701        4.1441041788
 H        -1.0518636757       -2.2679170794        5.0006370272
 H        -1.9132470187       -0.8127198074        4.7011805943
 H        -1.0080695052       -4.0875738644        3.5620235860
 H        -1.3553247449       -3.8629835455        1.8497411910
 H         0.1082493738       -3.3774753638        2.5679021241
 H        -2.9965985083        0.7094378627        0.7987628876
 H        -2.2155926365        2.1250786514        1.2489087047
 H        -0.3126778376        5.3053221254       -1.7304092829
 H        -1.2812641312        5.9677081468       -0.5332834433
 H        -0.7564704055        3.8540131962       -2.9163591448
 H        -1.3662147530        2.2798515019       -3.1025983777
 H         0.1344417258        2.4771488053       -2.5393334032
 H        -3.3661050179        3.0696372914       -2.0171722399
 H        -3.7450635163        2.8814802726       -0.3193857417
 H        -3.1370468371        4.3421185780       -0.9225930016
 H         1.7591773841        5.4507724233        0.0171123653
 H         0.5431330929        6.2970795408        1.0726991778
 H         4.5863429405        7.8421473885       -3.4536806969
 H         4.7672634566        8.7302770642       -1.9750255025
 H         2.3909171365        9.9192212627       -0.0432498287
 H         1.7309590882        9.5299939386       -1.7578238691
 H         3.3652824104        9.8048480762       -1.3456625195
 H         3.2672874686        6.6970230069        0.9179108506
 H         4.4454794412        8.0425917799        0.5172202598
 H         2.7455184872        8.1751293543        1.5153552386
 H         6.7062038037        7.3709461197       -2.0825124497
 H         5.7031965828        6.4817669000       -0.9267714275
 H         3.2140936457        4.0087625952       -1.2151513777
 H         3.9439919350        2.4267351890       -1.9110669323
 H         6.4969097040        2.0265641759       -2.8084075866
 H         6.8678371874        3.2194730005       -4.0821938290
 H         5.1840424680        2.8970405730       -3.6793862969
 H         8.4981376260        4.5849841331       -2.6091138359
 H         8.0146773223        5.0456547199       -0.9480707244
 H         8.2958853512        3.3558535740       -1.4756676925
 H         2.5731131288        2.5213519160        0.5916785363
 H         4.2032688976        3.0946812457        1.0807878316
 H         4.5171168425       -1.6057191346       -0.3143129384
 H         5.1592735094       -2.5178644034        0.9069491310
 H         5.5839549165        1.1945087866        2.6665308873
 H         6.1552343397       -0.0970210659        1.8222964152
 H         5.1593964746       -0.4594812588        3.3975020209
 H         3.2173688516        1.7812594226        3.1909485866
 H         2.0386025831        1.1072374798        2.1466772608
 H         2.6344910596        0.1142393554        3.5856981539
 H         3.9034097183       -4.2534073839        0.1721161249
 H         2.5214004532       -3.3869006601        0.8101743155
 H         0.6375952342       -2.2211835372       -2.9657589029
 H        -0.6506709817       -3.1616542303       -3.2917350529
 H        -0.5982537217       -1.8299817284       -2.0504191405
 H         1.6957849303       -3.9402807780       -4.0007843694
 H         1.4586697731       -5.6473555887       -3.3829945002
 H         3.0807366207       -4.5588441570       -3.5738239137
 H         2.9417856498       -5.9759117814       -0.9227992950
 H         1.5496805739       -5.3408052724        0.0559391472
 H         1.2179293710       -6.1433562416       -1.4560499075
 Na       -2.6288192527       -3.4867293634       -0.0787482761
