155

 C        -6.8058639591       -3.1200264625       -2.1433317685
 C        -5.3493318072       -3.7407498353       -1.9246749101
 C        -5.1121959291       -5.2493401281       -2.1937927051
 C        -4.9814477057       -5.7883838826       -0.7265732202
 C        -6.0581119796       -6.6267289795       -0.0334865005
 C        -6.2527616329       -5.9306301017       -2.8780041943
 C        -3.8973842324       -5.4708537152       -3.0047416366
 O        -4.4853386947       -3.0109017671       -1.5226064479
 O        -3.9327806150       -5.5910528142       -0.1487364952
 C        -5.9741892927       -6.3077929962        1.4673212324
 C        -6.7940150433       -4.9547940514        1.7808292492
 C        -6.9968352379       -4.6794722586        3.3184676334
 C        -5.4732060728       -4.1994296414        3.7285163499
 C        -5.3330127201       -2.6450432781        4.0140927176
 O        -7.0998997641       -4.1834261986        0.9401183285
 O        -4.5190254731       -4.8688072590        3.9984428144
 C        -8.0845733520       -3.6185742494        3.5098223709
 C        -7.3577686729       -6.0586722613        4.0179728581
 C        -3.8249544008       -2.3347513126        4.1786569487
 C        -3.1728912320       -2.4096136564        2.7568237406
 C        -1.5978731414       -2.0517903329        2.7473613440
 C        -1.3380784213       -1.2312234241        1.3707972038
 C        -0.8250539166        0.2049263044        1.4835657221
 C        -1.1738687875       -1.2390385105        3.9585538559
 C        -0.6933228638       -3.2543878549        2.7171312618
 O        -3.7235400761       -2.9579206290        1.8616257281
 O        -1.3679108715       -1.8415038223        0.3214463498
 C        -1.7763620019        1.2466494485        0.9117926354
 C        -1.4738353363        1.3704662437       -0.5940850398
 C        -1.4443754021        2.8461656107       -1.1772908914
 C        -0.1945958721        3.6457464596       -0.7277640950
 C         0.0103230876        5.1770159938       -1.2149208196
 O        -1.3120898944        0.3936054485       -1.2548943225
 O         0.6214850076        3.2331856886        0.0467926489
 C        -1.4055918408        2.8245627971       -2.7154743458
 C        -2.7843772683        3.5721719198       -0.7145482208
 C         0.9811539722        5.8876754655       -0.2957016870
 C         1.0712057655        7.4822572416       -0.7117006592
 C         2.4269343450        8.1344629578       -0.6679713553
 C         3.4484917011        7.4757097028       -1.7426521514
 C         4.7260067000        8.1608329979       -2.0687954921
 C         2.2992779180        9.7353845672       -0.6650955879
 C         3.0140319699        7.7663377175        0.7642107216
 O        -0.0237091641        7.9770542911       -0.9400047208
 O         3.2505986121        6.3118150438       -2.1050173468
 C         5.9522668654        7.2639802470       -1.7454201529
 C         5.9949801862        6.0104720120       -2.6293783354
 C         6.4967564763        4.5734006919       -1.9780357285
 C         5.4967780964        4.2647918513       -0.8331794415
 C         4.6948874664        2.9080505152       -0.8486859428
 O         5.5793305284        6.1130436672       -3.7704273899
 O         5.5065275076        5.0398758918        0.0877571857
 C         6.5048043630        3.4498923575       -3.0575348381
 C         7.8199424766        4.9841258286       -1.4108006550
 C         4.0130481822        2.5416500871        0.4594031836
 C         4.1225412994        0.9405762746        0.6522863324
 C         3.6058497908        0.2094807738        1.9594929899
 C         3.0149760208       -1.2034727280        1.6590355919
 C         3.7565480116       -2.4338126975        1.3028591488
 C         4.8944650289       -0.0731216917        2.7167967764
 C         2.6150410626        1.0712316371        2.7430613789
 O         4.9622465385        0.4029357932       -0.0927647033
 O         1.8044695721       -1.2616010675        1.8768282834
 C         2.8287471836       -3.4750245769        0.5956427305
 C         2.7221404014       -3.1777771988       -0.9620605275
 C         1.9294727393       -4.2146280217       -1.8248589790
 C         0.4480702367       -3.6787657369       -1.7038736999
 C         0.0817186383       -2.3385826328       -2.3402870833
 O         3.1221744891       -2.1619188745       -1.4595669453
 O        -0.4112548455       -4.3312087223       -1.0795444598
 C         2.3389150922       -4.1272129951       -3.3465699247
 C         2.0721761348       -5.6527360282       -1.3574619321
 H        -7.2528710937       -3.0856749098       -1.1737033666
 H        -6.6333945733       -2.0501966940       -2.4451354021
 H        -7.5453453084       -3.6412292323       -2.8100130899
 H        -7.1422466150       -6.5261095554       -0.4107490285
 H        -5.8783727913       -7.6804982887       -0.3381274855
 H        -7.1700546059       -5.9439084500       -2.3337178641
 H        -6.0300007804       -7.0187752627       -2.8993232915
 H        -6.2840379172       -5.8013911935       -3.9436017682
 H        -3.7752495882       -6.4978937401       -3.2898680002
 H        -4.0032223684       -4.8313490694       -3.8717100004
 H        -3.0528217161       -5.2756515716       -2.3781796697
 H        -6.5589459391       -7.0182176597        2.1338181297
 H        -5.0165944357       -6.3081804984        1.9713167002
 H        -5.8207494924       -2.2073933136        3.1272257499
 H        -5.9030262644       -2.4626036966        4.8456614768
 H        -7.8443509661       -2.7086542889        3.0013517986
 H        -7.9651652222       -3.4355857806        4.6451114735
 H        -9.0260480459       -4.0976574120        3.4313078284
 H        -7.6586433663       -5.9055743145        5.0528060440
 H        -8.2289005821       -6.4962805590        3.4640656874
 H        -6.5016969547       -6.6770215187        3.9986648734
 H        -3.2196896537       -3.0627681599        4.7652890454
 H        -3.5113816369       -1.3439788599        4.5759961686
 H        -0.5851918169        0.5785565018        2.4636782854
 H         0.0387721272        0.2036896966        0.8600517180
 H        -0.0780511313       -1.1519806025        3.9632864272
 H        -1.4940366651       -1.8296791834        4.8014061971
 H        -1.5924125634       -0.2352565540        3.9975308724
 H        -0.6923200533       -3.8194179858        3.6237163790
 H        -0.9094755841       -3.9616249126        1.8890954933
 H         0.3026136705       -2.8661575957        2.5279362519
 H        -2.8180639444        1.0562627945        1.0815376037
 H        -1.6491211452        2.2695000674        1.3078228159
 H         0.3846323487        5.0500647625       -2.2380706755
 H        -0.9770565645        5.6693153214       -1.3479207902
 H        -1.5298091901        3.8272825496       -3.0623385577
 H        -2.3583187337        2.3855690239       -3.0686382369
 H        -0.5751485391        2.3716793099       -3.1887521305
 H        -3.2918823661        2.8901281618       -0.0776214491
 H        -2.6048144044        4.4876487933       -0.0675636422
 H        -3.4569672849        3.7211305430       -1.5884435399
 H         1.9365572407        5.3714011332       -0.3969408174
 H         0.6847070445        5.7706100383        0.7227560498
 H         4.7400084802        8.4268187253       -3.1516993597
 H         4.7026039299        9.1510292354       -1.5187530651
 H         1.2571986054       10.0471751272       -0.3253752220
 H         2.3900018006       10.2287160522       -1.5943042615
 H         3.1529685090       10.1780379217       -0.1264358271
 H         3.3331680111        6.7472953584        0.7530572478
 H         3.8233811618        8.4402808923        1.0027950700
 H         2.2645781452        7.9768266146        1.4966292888
 H         6.9230546330        7.8588601056       -1.9459525530
 H         5.8915641916        7.0797740258       -0.6823744212
 H         3.8833694692        3.0045985311       -1.5327947359
 H         5.4382559012        2.2248664081       -1.1830789462
 H         6.8826708699        2.4735048268       -2.7618040397
 H         6.9610199971        3.8212213038       -4.0155453551
 H         5.4327836363        3.2603902426       -3.3041194818
 H         8.4914929525        5.4717628096       -2.1940791110
 H         7.8537073572        5.6701343040       -0.5183578789
 H         8.4130352028        4.1165602620       -1.0576810296
 H         3.0751549247        3.2072976046        0.5245638641
 H         4.6495851407        2.8364444200        1.3714304337
 H         4.5727172110       -2.1593750035        0.6628639539
 H         4.2034525737       -2.8553231976        2.2034322136
 H         5.4178735253        0.8174773468        3.1070210295
 H         5.4606203185       -0.6798451158        1.9628272996
 H         4.8128117118       -0.7124713736        3.5599702179
 H         3.2319301128        1.8571292054        3.2496844148
 H         1.8784703158        1.5022142772        2.0429669083
 H         2.0484548708        0.4554523114        3.4448667091
 H         3.1320546875       -4.5523809909        0.7087428983
 H         1.7903008067       -3.4587514861        0.9771655209
 H         0.9218591625       -1.6308761113       -2.1800071998
 H         0.0828446346       -2.2836675462       -3.4231164550
 H        -0.8352079233       -1.8835828044       -1.8719303095
 H         3.0369617140       -3.2468816401       -3.6492766563
 H         1.4285946788       -3.9002543208       -3.9499515217
 H         2.8701228363       -5.0582677573       -3.6132834817
 H         3.1312497637       -5.9724110844       -1.5435466093
 H         1.7326414764       -5.8454174244       -0.3787016632
 H         1.5666563323       -6.3595133631       -2.0318047699
 Na       -2.4808721912       -3.7311638659       -0.1412574463
