155

 C        -6.6821106916       -3.2272092436       -2.2226871010
 C        -5.4020940362       -3.8427752212       -1.9881235689
 C        -5.1291951245       -5.3522341786       -2.1730543984
 C        -4.8979673591       -5.8950847652       -0.7537759441
 C        -5.9098822508       -6.7110876084        0.0435658992
 C        -6.2958121841       -5.9881320565       -2.8466616729
 C        -3.8521710505       -5.5086711529       -3.0652351341
 O        -4.4369827057       -3.1594854142       -1.6395711760
 O        -3.8418797118       -5.7198026920       -0.1905033531
 C        -6.0465880565       -6.4238168815        1.5204305758
 C        -6.8302054113       -5.0387306892        1.8335974564
 C        -7.0231577342       -4.6894092266        3.3511650947
 C        -5.5768385764       -4.1977079266        3.7075166537
 C        -5.2302120249       -2.6985358146        3.8371900802
 O        -7.2186908313       -4.3130475462        0.9180475535
 O        -4.6405172110       -5.0088730129        3.7544179758
 C        -8.0798650804       -3.5696662926        3.5455254645
 C        -7.3056473904       -5.9107394495        4.3762655713
 C        -3.9187503243       -2.1724446455        3.9758355421
 C        -2.9519833968       -2.5724602347        2.7899237510
 C        -1.5391527066       -2.1722299183        2.8261196326
 C        -1.3332151015       -1.2456021498        1.4689934857
 C        -0.8009273714        0.1442293874        1.4247557102
 C        -1.1329835537       -1.3136733461        4.0970320925
 C        -0.5988805627       -3.4279102021        2.6857825208
 O        -3.4276885594       -3.1799996224        1.8271995066
 O        -1.5649155340       -1.7492379013        0.3880890426
 C        -1.7681662705        1.1996760681        0.8452691720
 C        -1.4961356635        1.5009537674       -0.7384040355
 C        -1.5316384362        2.9621876003       -1.3527493017
 C        -0.1357439600        3.5781310171       -0.9781008416
 C         0.0819293795        5.0444215636       -1.3966783943
 O        -1.3239574047        0.5972408519       -1.5592013821
 O         0.6940659579        2.9698283843       -0.2896689168
 C        -1.7092904214        2.8227948502       -2.8481395253
 C        -2.6377803112        3.9032122776       -0.6826345507
 C         0.9914910934        5.8607331078       -0.3995598844
 C         0.9962804828        7.3520480394       -0.6271487000
 C         2.4494250393        8.1281377048       -0.4702937355
 C         3.3603152723        7.4908146567       -1.5604365697
 C         4.7089400022        8.2950466305       -1.8983057777
 C         2.1856793728        9.5653240665       -0.9293990776
 C         3.1607781119        7.8926281079        0.8360605904
 O         0.1101506054        8.0225986884       -1.0201880750
 O         3.2150927181        6.4593129266       -2.1131317276
 C         5.8759007122        7.3222845919       -1.6032226604
 C         5.9310607360        6.1577636720       -2.5229981325
 C         6.3929257096        4.7550262460       -1.8751409229
 C         5.4899750596        4.3171417408       -0.6447287891
 C         4.8801006498        2.9450627405       -0.8573090563
 O         5.5901163829        6.2243814156       -3.6682785089
 O         5.2828260052        4.9982959232        0.3605338360
 C         6.6161458894        3.8935413601       -3.0882294939
 C         7.8735121367        5.0163706800       -1.3036648947
 C         4.1202082725        2.3741038971        0.4028920804
 C         4.3163353522        0.8703426431        0.6149963111
 C         3.6793987839        0.2056692381        1.9806825326
 C         2.9161782208       -1.1271744674        1.7868939440
 C         3.6004091949       -2.4724534339        1.3089949461
 C         4.9005680270        0.0614750011        2.9449278159
 C         2.6150653531        1.2292695321        2.6923343732
 O         5.0025346655        0.2402668958       -0.0913420522
 O         1.7225656870       -1.1578326259        1.9918331621
 C         2.7440666577       -3.5377853250        0.6172420649
 C         2.7135131610       -3.1908110952       -0.8668182442
 C         1.8826397284       -4.0241493384       -1.7814342927
 C         0.3572058237       -3.6340097362       -1.6786045171
 C         0.0943484540       -2.2451448995       -2.3261056836
 O         3.1867641324       -2.1636054566       -1.3473903141
 O        -0.4496063720       -4.3651647213       -1.1484817374
 C         2.4446220185       -3.9854680554       -3.2272966450
 C         1.9388100747       -5.5915363529       -1.3818316239
 H        -7.5223067322       -3.8175676741       -1.7781763487
 H        -6.7188288236       -2.1902240676       -1.9066746101
 H        -6.7597463427       -3.3406072912       -3.2887807927
 H        -6.8192623265       -6.6715392134       -0.4541923660
 H        -5.6125794391       -7.7733029067       -0.0105352900
 H        -7.2143927857       -5.7997119346       -2.2864355725
 H        -6.2806189634       -7.0530550225       -2.9995907199
 H        -6.3182600003       -5.6383213636       -3.8676758246
 H        -3.9866771128       -6.4231836912       -3.6096430147
 H        -3.7532960922       -4.7239824325       -3.7655366046
 H        -2.9414842730       -5.6030919766       -2.4294714464
 H        -6.5685241927       -7.1765439873        2.0440097762
 H        -5.0298855303       -6.4149743723        1.9508471335
 H        -5.6232185259       -2.2739042051        2.9417472227
 H        -5.8744719449       -2.3506752306        4.7461471461
 H        -7.7744510377       -2.9717432121        2.6405163205
 H        -7.9143050153       -2.9167570897        4.3504227750
 H        -9.1013195913       -4.0470557554        3.6218930494
 H        -7.5587664874       -5.4199235264        5.3277123764
 H        -8.0710579699       -6.6091866931        4.0619201943
 H        -6.3189664987       -6.4391186198        4.5531646163
 H        -3.3892556769       -2.4636997862        4.8471555569
 H        -3.9153867640       -1.1038148834        3.9813474026
 H        -0.6709667901        0.5943397836        2.4123079030
 H         0.1791743638        0.1364815113        0.8598143743
 H        -0.1413977458       -0.9193463343        3.8220923591
 H        -1.2261001301       -1.9245441013        5.0399673266
 H        -1.7684491310       -0.4122918898        4.2038963935
 H        -0.7369615220       -4.0269358409        3.6534778003
 H        -0.7689833636       -4.1280752332        1.8653720758
 H         0.4694529256       -3.0682953768        2.6282763574
 H        -2.8469622085        0.9040934313        0.8671858268
 H        -1.7110660700        2.1368054964        1.3892530890
 H         0.5305765259        4.9129189104       -2.3756577071
 H        -0.9008868709        5.4493933177       -1.4682418793
 H        -1.7881417430        3.7636962286       -3.4569974989
 H        -2.6655323092        2.3716784672       -3.0867011656
 H        -0.8173009211        2.2065514868       -3.1983113109
 H        -3.4173883536        3.3875751474       -0.0383722366
 H        -2.1828254430        4.6288525614       -0.1062667103
 H        -3.1333106071        4.3340677125       -1.5589890034
 H         2.0352239195        5.5269313944       -0.4203569651
 H         0.7391122778        5.7715924170        0.6891745672
 H         4.8239672793        8.5817051852       -2.9243803453
 H         4.8065216832        9.1710803700       -1.3192494555
 H         1.5383615194       10.0735412931       -0.3154488018
 H         1.5666255857        9.6005959953       -1.8800245493
 H         3.0953772765       10.1454554505       -1.1611704590
 H         3.4200869437        6.7752832896        0.8778039839
 H         4.1573005067        8.3230879039        0.9850338497
 H         2.5575872608        8.2689182162        1.6421744551
 H         6.7887036261        7.8519228123       -1.5973397774
 H         5.7411651783        6.9886834496       -0.5507276951
 H         4.3153254695        3.1376149179       -1.7894628423
 H         5.7941012488        2.3047955435       -1.0072175644
 H         7.1316773592        2.9949699295       -2.7680271502
 H         7.2695845445        4.4659018576       -3.7377374105
 H         5.7638509194        3.5991116898       -3.6730495699
 H         8.5121988994        5.4480782896       -1.9955967032
 H         7.8765851031        5.7392274595       -0.5519447350
 H         8.3633990279        4.1415047187       -0.9209173793
 H         3.0849514630        2.3652394887        0.4428227076
 H         4.4069221038        2.9866426521        1.1887330740
 H         4.5464735578       -2.3388963811        0.6870398563
 H         3.9522691263       -2.9732224056        2.2627442116
 H         5.2593419183        1.0270757044        3.1884170826
 H         5.6566903053       -0.5944428013        2.6326547624
 H         4.5972165151       -0.3858544745        3.9009807194
 H         3.0420489998        2.1972820479        2.9385165387
 H         1.7495035773        1.2607150658        2.0257572635
 H         2.2118168335        0.7340071206        3.5958318328
 H         3.2253790960       -4.4946310199        0.6653205119
 H         1.7567463922       -3.7137996178        1.0451175506
 H         0.8955374799       -1.4536701187       -2.3401977570
 H         0.0062722091       -2.3742183346       -3.4672395304
 H        -0.8832153955       -1.9016232144       -1.9239756290
 H         2.8782694243       -3.0299025094       -3.3062426747
 H         1.7201396634       -3.8634205174       -4.0536826130
 H         3.1697298607       -4.8085490032       -3.4422623495
 H         2.8958452297       -6.0078297182       -1.2023036694
 H         1.3454353836       -5.6311307039       -0.4463494462
 H         1.5130832727       -6.2938981892       -2.1108377189
 Na       -2.6692765234       -3.8018907728       -0.1827455083
