155

 C        -6.9412070467       -4.3220271603       -2.3004441392
 C        -5.4126228185       -4.7073225581       -2.0094475187
 C        -4.9714104583       -6.2186019839       -1.9882354462
 C        -4.6039770646       -6.5255972581       -0.4267054085
 C        -5.4280318337       -7.4684379050        0.4293588441
 C        -6.0832342053       -7.1337859255       -2.7554440647
 C        -3.5753332171       -6.2901610129       -2.7317291994
 O        -4.7428201239       -3.7310414289       -1.8459390168
 O        -3.5845279869       -5.9743792241        0.0177537451
 C        -5.5536271374       -6.9569358240        1.9284596666
 C        -6.4285084397       -5.6169594230        1.8016114495
 C        -7.0539954392       -4.9495576911        3.0551569095
 C        -5.9285558331       -3.9948196480        3.7166868777
 C        -5.9448522674       -2.5423984637        3.4267203156
 O        -6.8287287748       -5.1716036721        0.7212714867
 O        -5.2211981835       -4.5178339193        4.5759032132
 C        -8.2694141950       -4.1736197950        2.6132700566
 C        -7.4471619846       -6.1610447638        4.1379614336
 C        -4.4286729812       -1.9655800179        3.4894280743
 C        -3.6104414038       -2.2962360224        2.2750212058
 C        -2.0165588099       -1.8195297235        2.3937305626
 C        -1.6562593215       -1.1016827570        0.9787693130
 C        -0.8836934894        0.2358954271        1.0190359876
 C        -1.7506315181       -1.0704130474        3.6448975141
 C        -1.1174946979       -3.1320826858        2.3105822932
 O        -3.9285023451       -2.9761687143        1.3424783124
 O        -1.9015132362       -1.6326239563       -0.0747271177
 C        -1.6646080698        1.4181043395        0.3914654663
 C        -1.5708303804        1.6455963397       -1.0998821352
 C        -1.0928365222        2.9453611692       -1.7475222987
 C         0.3748903622        3.2813869027       -1.0985236070
 C         1.1807059032        4.4732793956       -1.5044832262
 O        -1.7445935000        0.6126727958       -1.7691049720
 O         0.7426924947        2.5302251632       -0.2141011272
 C        -1.0982650318        2.6713703706       -3.2483635609
 C        -2.1002618855        4.1299684533       -1.5018999292
 C         1.1429074039        5.5018951145       -0.3252065650
 C         0.6487451425        6.9154500577       -0.6675029839
 C         1.6906240923        8.1154989312       -0.4780700507
 C         3.0363251158        7.7631779195       -1.3629278009
 C         4.3758418856        8.2939072718       -0.8679932882
 C         1.1733514635        9.4640436216       -1.0555326165
 C         2.1233067588        8.1674887968        1.0057321634
 O        -0.4509989049        7.1270304584       -1.0518027115
 O         2.9920252586        7.0630987407       -2.3148738450
 C         5.4680937328        7.2910837098       -0.3524966618
 C         6.2513928215        6.2436944967       -1.3076676001
 C         6.6616280845        4.9181669956       -0.5613281485
 C         5.3215554368        4.1046438224       -0.6044227440
 C         5.1663395934        2.6912425855       -1.2897807913
 O         6.4164692431        6.4652593940       -2.4875096245
 O         4.3243892971        4.4548956132       -0.0307553078
 C         7.7215108053        4.2973924989       -1.5131153870
 C         7.0933726271        5.0033849353        0.8640717830
 C         4.3661782490        1.7156931625       -0.4190136766
 C         4.9201321975        1.5016893109        0.9411438561
 C         4.0863129643        0.6455846140        1.9954544824
 C         3.5363977517       -0.6872627798        1.4861719647
 C         4.4026304877       -1.6099002066        0.6506869702
 C         4.9670180370        0.3623217651        3.2108098098
 C         2.9169219010        1.5415873556        2.4297313352
 O         5.9724063124        1.9901242880        1.2972721510
 O         2.3999402161       -0.9615875750        1.8378885388
 C         3.6751710589       -2.8446533107        0.0623821720
 C         2.8014328246       -2.5391559944       -1.1672532835
 C         1.8966080199       -3.8000676105       -1.8433992563
 C         0.4423556459       -3.1365614732       -1.8160584823
 C         0.1504665580       -1.9194697065       -2.6993719224
 O         2.7502567274       -1.4144212911       -1.6802438849
 O        -0.4666115022       -3.7544219325       -1.2203270286
 C         2.2751768071       -3.8688321224       -3.3322146488
 C         2.0505788597       -5.0709091009       -1.1061280083
 H        -7.5989997748       -5.1010003769       -1.9466218965
 H        -7.2341277853       -3.3380351333       -1.9251455982
 H        -7.0957192755       -4.2348893633       -3.4124655782
 H        -6.4516799012       -7.6012507771       -0.1021751137
 H        -5.0489825282       -8.5249765668        0.3875398130
 H        -7.0048688154       -7.1002688298       -2.2014128857
 H        -5.6912422924       -8.1763669394       -2.8410671897
 H        -6.1499057053       -6.8226104109       -3.8041227187
 H        -3.1277621044       -7.2888292732       -2.7114225010
 H        -3.7469927864       -6.0898865830       -3.8274439852
 H        -2.8375860020       -5.6291795706       -2.4203427065
 H        -6.1525301213       -7.6331525473        2.6947411876
 H        -4.5225023957       -6.7590080192        2.2685846509
 H        -6.5399567802       -2.2364778986        2.4951920810
 H        -6.4078487472       -2.1002319924        4.2998103974
 H        -7.9839205260       -3.4472912435        1.8476144199
 H        -8.7648632962       -3.5549547820        3.4225995022
 H        -8.9671186989       -4.8808917533        2.2372050138
 H        -7.8921376811       -5.6789812314        5.0165926680
 H        -8.2295540528       -6.7558272227        3.5796279535
 H        -6.6649854817       -6.8347851133        4.4335753597
 H        -4.0247322665       -2.4930462738        4.3994015454
 H        -4.5600335010       -0.8369584451        3.7998504970
 H        -0.7047286429        0.5596285941        2.0333826830
 H         0.1385686405        0.1804071538        0.5908227783
 H        -0.7348053394       -0.5845741214        3.6486816758
 H        -1.9308744364       -1.6564488714        4.5339197685
 H        -2.4373830516       -0.1651454790        3.7786756637
 H        -1.2066391657       -3.7652959021        3.2173843790
 H        -1.3283542570       -3.7771209641        1.3814583342
 H        -0.0688960841       -2.7519760621        2.2952820576
 H        -2.7266617905        1.3631218935        0.6545307777
 H        -1.4185404732        2.3940749433        0.8329617933
 H         2.2150054310        4.2235115352       -1.8768783473
 H         0.7323635144        4.8630700365       -2.4956653747
 H        -0.6535486936        3.5059437776       -3.8271010569
 H        -2.2162165538        2.7434137301       -3.5043372953
 H        -0.5917118432        1.7183392238       -3.4056966866
 H        -3.0554468825        3.7502384573       -1.3328218367
 H        -1.9585256061        4.6589879313       -0.5078474124
 H        -2.1370521027        4.8584748849       -2.2792257523
 H         2.1706579253        5.5718346729        0.1480772003
 H         0.5310286922        5.1516234937        0.4982081046
 H         4.7660768072        8.7523956630       -1.7509979065
 H         4.1469322053        9.1402485584       -0.2204308297
 H         0.4402746502       10.1082686711       -0.4967595019
 H         0.4825951256        9.1891292582       -1.9099912176
 H         1.9783721300        9.9575819204       -1.4703512151
 H         2.5004802155        7.2835728903        1.4198995107
 H         2.9022432080        8.8897950277        1.4145374135
 H         1.2247874926        8.5383859358        1.6343277450
 H         6.3154707411        7.9161303957        0.1038482145
 H         5.0279131285        6.7508817370        0.4237539863
 H         4.7279971551        2.8262356982       -2.2455251604
 H         6.2149075477        2.3483434498       -1.4302941778
 H         8.0655831693        3.3235819011       -1.1164171761
 H         8.5396889144        4.9362281942       -1.4808474478
 H         7.3640397713        4.1668755457       -2.5155379203
 H         8.0026449801        5.5414531981        0.8919106676
 H         6.4303168656        5.5056438017        1.5479552379
 H         7.2129514423        3.9935128678        1.0993675915
 H         4.2464143604        0.7985942737       -1.1595994783
 H         3.3428909334        2.1743868934       -0.4646562072
 H         5.0200196667       -1.0866858982       -0.0788368626
 H         5.1555649111       -1.9446826097        1.2842471799
 H         5.2944577858        1.1506428852        3.8549358888
 H         5.7896492268       -0.2605511973        2.8750026789
 H         4.5133257550       -0.2612974388        3.8890153942
 H         3.2832380329        2.5859034807        2.2033724219
 H         1.8826838350        1.3222698439        2.0526596849
 H         2.9227307223        1.5646816919        3.5277731992
 H         4.3645586399       -3.6984480667       -0.1036387638
 H         3.0250706818       -3.1804650579        0.8769533053
 H         1.1066606381       -1.4456237743       -2.9650266708
 H        -0.4586767100       -2.1551969689       -3.5480109248
 H        -0.4688302347       -1.1923711734       -2.1768082916
 H         2.7425870759       -3.0128228828       -3.7613379565
 H         1.3985608009       -3.9354984532       -3.9209383190
 H         2.9514156121       -4.7238043408       -3.3236501510
 H         2.7994034521       -5.6757540393       -1.6181125724
 H         2.1792953285       -4.8858884661       -0.0402912401
 H         1.2397124813       -5.7432710511       -1.2793532063
 Na       -2.7826406918       -3.6561993272       -0.6535023265
