155

 C        -6.8241559440       -4.6566450748       -2.5335111074
 C        -5.3921217588       -4.7732176213       -1.9740190915
 C        -4.7355201564       -6.1774993370       -1.8333191151
 C        -4.3933094743       -6.2852567836       -0.2677525097
 C        -4.9121008734       -7.4886642433        0.5467867805
 C        -5.6674243820       -7.3912564985       -2.3554781617
 C        -3.5099449969       -6.2284973794       -2.7490808885
 O        -4.7540842092       -3.8242447068       -1.6722563718
 O        -3.4304576227       -5.6363737629        0.1636746609
 C        -5.4376297541       -6.9050847094        1.8859493098
 C        -6.4589593591       -5.7652273911        1.6835799632
 C        -7.0885414250       -5.0698787801        3.0344777338
 C        -5.9619560881       -4.0156152415        3.5132178852
 C        -6.0191874393       -2.5506623731        2.9720768488
 O        -6.5927848849       -5.2129371383        0.5760610856
 O        -5.0933068850       -4.4541014683        4.2632485089
 C        -8.4132688156       -4.3130624453        2.4610893263
 C        -7.3619386952       -6.1999759566        4.0368748156
 C        -4.6792826142       -1.7557744668        3.2078964886
 C        -3.6613435095       -2.2741139011        2.2782163844
 C        -2.1408905242       -1.8497442599        2.5104399535
 C        -1.7978155582       -1.0013348912        1.2247815957
 C        -1.1791137548        0.3914129456        1.2234920077
 C        -1.7671660774       -1.1356116505        3.8699287094
 C        -1.2350939156       -3.1642842287        2.3632415705
 O        -3.8196953484       -2.9984109289        1.3357810819
 O        -2.0234552645       -1.4474419802        0.1079667148
 C        -1.9936809798        1.3970553930        0.2412192298
 C        -1.6064334171        1.4452178299       -1.2888197214
 C        -0.9104562526        2.7415099101       -1.7560362120
 C         0.4287644721        3.1833960675       -0.9773977930
 C         1.0735534831        4.4918579859       -1.4405328167
 O        -1.5949559596        0.4806080865       -2.0430591839
 O         0.9873340246        2.3901178048       -0.2634400324
 C        -0.5904530697        2.4897487045       -3.2857253900
 C        -1.9889339707        3.8767917441       -1.6200890886
 C         1.2633976131        5.5003035026       -0.3056692673
 C         0.6792964462        6.8380545782       -0.7179299682
 C         1.8391125541        8.0036828308       -0.4812088730
 C         3.0487938129        7.5826477481       -1.3737676934
 C         4.3873824800        8.1596104289       -0.8777233113
 C         1.2872374447        9.3682889717       -1.1076839438
 C         2.2236393650        8.2068984029        0.9344934622
 O        -0.3971991428        7.0548977955       -1.1603839032
 O         2.8644779923        6.7752746444       -2.2425871611
 C         5.2019401330        7.1761405929       -0.0849121071
 C         6.0423414132        6.2568410703       -0.8883759049
 C         6.4791724725        4.9008173333       -0.2782234275
 C         5.1490262437        4.1626376252       -0.3353849308
 C         4.9796540776        2.9057630424       -1.2719441467
 O         6.3575382855        6.5291347088       -2.0264685888
 O         4.1575318120        4.4922432463        0.3332779038
 C         7.6558620022        4.2548936995       -1.0395042233
 C         6.8975877521        5.0172946128        1.3007809743
 C         4.1633522288        1.8673810177       -0.4562484691
 C         4.8228871357        1.6400080317        0.8850222726
 C         3.9317143249        0.8101314296        2.0152429037
 C         3.3962507027       -0.5077351279        1.3791673188
 C         4.2712399352       -1.3079277684        0.5145537136
 C         4.9797384279        0.3718954208        3.0828541247
 C         2.7878843900        1.6017757054        2.6026424282
 O         5.9627837616        1.9761294582        0.9681965029
 O         2.2239209660       -0.8739156699        1.5820233297
 C         3.6461654296       -2.4857612920       -0.2021378904
 C         2.7922819681       -2.2916175375       -1.4180858018
 C         1.7959448901       -3.4771064080       -1.8667877724
 C         0.3522085504       -3.1541719564       -1.9035881113
 C        -0.1531794282       -2.0856232068       -2.7883900023
 O         3.0636642596       -1.4702450669       -2.2750476268
 O        -0.4691169231       -3.7665193972       -1.1529975203
 C         2.2220215398       -3.8755158941       -3.3458568280
 C         2.1181736833       -4.7990595162       -1.0272746761
 H        -7.6137496030       -4.7867997426       -1.7540073817
 H        -6.8358619314       -3.6726219112       -2.9414513494
 H        -7.0195396977       -5.3728217315       -3.3524080742
 H        -5.6616239335       -8.2466474636        0.1381260033
 H        -4.1061450551       -8.2092853789        0.6444256876
 H        -6.7077692458       -7.3222675491       -2.0896328851
 H        -5.1998554660       -8.2342840560       -1.8806190852
 H        -5.6974942262       -7.4001442480       -3.4369309942
 H        -3.0665933664       -7.1838054602       -2.8068425440
 H        -3.8060752107       -6.0517741824       -3.7754388628
 H        -2.8216608271       -5.4792973408       -2.6155622426
 H        -5.8138039512       -7.7133270329        2.6125560649
 H        -4.6712020165       -6.4155638240        2.4977315009
 H        -6.1354861648       -2.5639769267        1.8042836216
 H        -6.9758029992       -2.1933231148        3.3628121287
 H        -8.1822438432       -3.7542526847        1.5337239925
 H        -8.7218705421       -3.4860534550        3.1008998025
 H        -9.1746177448       -5.0221510318        2.1744828598
 H        -7.9013391955       -5.8945187567        4.9575636491
 H        -7.9389896758       -6.9961664585        3.5621770213
 H        -6.4053052123       -6.6124746846        4.2466483181
 H        -4.5536148860       -1.7143055186        4.2871145869
 H        -4.8157644555       -0.6495136368        2.9479886992
 H        -1.1293673344        0.8592441447        2.2288903745
 H        -0.1635681098        0.1939484896        0.7689241895
 H        -0.7186877405       -0.7958193562        3.9275838219
 H        -1.7324428830       -1.8488258784        4.6489263183
 H        -2.4510367507       -0.2902297999        4.2136459270
 H        -1.4480043943       -3.9012664420        3.1368753007
 H        -1.5187039302       -3.5339081132        1.4005869475
 H        -0.1779503070       -2.9287511693        2.2889200661
 H        -3.0839561582        1.1593201041        0.3237898079
 H        -1.8931626263        2.4465607812        0.6184986243
 H         2.0513331884        4.2023421568       -1.9347733221
 H         0.3644406593        4.8799994635       -2.2607677252
 H         0.0845234038        3.2665006130       -3.5844152001
 H        -1.5667709643        2.6369558445       -3.7964331219
 H        -0.2532566122        1.4960612107       -3.4417245995
 H        -2.8309570533        3.7791703045       -2.3231239832
 H        -2.5026228549        4.0492008707       -0.6399882149
 H        -1.5449332434        4.8057469092       -1.7864462143
 H         2.3277189369        5.6005197333        0.0101319406
 H         0.8495265303        5.1209802516        0.5971598147
 H         4.9597410681        8.4252786648       -1.7155939449
 H         4.2044804944        9.0213162659       -0.2400305674
 H         0.2234520617        9.5237982524       -1.0432634009
 H         1.5249161854        9.3855236799       -2.2197615297
 H         1.7793133473       10.1271352867       -0.5958958467
 H         2.7890271037        7.4482944777        1.3953442786
 H         2.8556989416        9.0986521464        1.0565192095
 H         1.3243967085        8.2240312946        1.6047715196
 H         5.8643426164        7.8679704745        0.4947416145
 H         4.6952890770        6.5975792529        0.5819024493
 H         4.3930163098        3.2445102105       -2.1113064337
 H         5.9222647362        2.3698467022       -1.6234069873
 H         8.0533621878        3.2206976480       -0.7169962689
 H         8.4806874966        4.8993043883       -0.9838681853
 H         7.3110274084        4.2816041523       -2.0801196624
 H         7.4637582437        5.9613512504        1.4844702132
 H         5.9781902288        5.1312898836        1.9319603029
 H         7.5545712303        4.1816488589        1.4189589012
 H         4.1428299710        0.9964038171       -1.2302967144
 H         3.1225290294        2.2043538100       -0.3905775631
 H         4.8730759329       -0.6932997521       -0.2207103744
 H         5.0763219092       -1.6648217675        1.1807751866
 H         5.5174168590        1.1853198107        3.5933608725
 H         5.7789535592       -0.2447211821        2.6469180818
 H         4.6003216793       -0.1925356948        3.8919131521
 H         3.1837245080        2.0783729565        3.4942043738
 H         2.3926663996        2.3818350835        1.9197222869
 H         1.9420131587        1.0184441000        2.9084115167
 H         4.4153443488       -3.2569898004       -0.3138202433
 H         3.0039819872       -2.9433279244        0.5268135498
 H         0.6133381131       -1.2038403726       -2.8132254261
 H        -0.2401269487       -2.3827612491       -3.9012378217
 H        -1.0354429124       -1.5508703459       -2.4302423034
 H         1.6864770640       -3.2474709229       -3.9585192784
 H         2.0106175804       -4.9385069932       -3.5807895388
 H         3.3367288186       -3.7493704778       -3.4018532333
 H         3.1798415644       -4.7794985237       -0.7572784278
 H         1.6354314343       -4.5913132183       -0.0292068708
 H         1.8109584112       -5.7337144184       -1.4248825669
 Na       -2.6563693257       -3.6561405669       -0.6618777741
