155

 C        -5.9919341368       -5.3040565211       -2.7591432958
 C        -4.6406548522       -5.1820700681       -2.0715889089
 C        -3.8796654831       -6.5042936788       -1.7692876227
 C        -3.5082730663       -6.6466890795       -0.1771237112
 C        -4.3402607174       -7.5359145287        0.8224829256
 C        -4.5727144707       -7.7015104758       -2.3005179991
 C        -2.4810421081       -6.3243156006       -2.5324188849
 O        -4.1422157028       -4.0797732034       -1.9133184836
 O        -2.7221278475       -5.8766138737        0.3053733786
 C        -5.0553456087       -6.8156272134        2.0255447959
 C        -6.3405300026       -6.0387176157        1.6243512108
 C        -7.0151321032       -5.1771717816        2.7015073983
 C        -5.8996419573       -4.1234962975        3.2281941898
 C        -6.1241186365       -2.6078531023        2.7960523716
 O        -6.6948783244       -6.1153996811        0.4941556582
 O        -4.9187128707       -4.4768090467        3.8097721014
 C        -8.2389216960       -4.6001309572        2.2262801071
 C        -7.3940869263       -6.1299348573        3.9403862692
 C        -4.9589691403       -1.7475697905        3.0111508415
 C        -3.6360414728       -2.1796804269        2.1580978620
 C        -2.3040957800       -1.3786095339        2.3513639687
 C        -1.9060381601       -0.6995625176        0.9047429224
 C        -1.8266232970        0.8518830427        0.8499044253
 C        -2.2834678876       -0.4096967796        3.6333747081
 C        -1.0946327381       -2.4025994213        2.5892793240
 O        -3.8613270063       -3.1419512259        1.4556487109
 O        -1.6882570200       -1.4113519926       -0.0693567528
 C        -2.6672062765        1.5548914760       -0.2187742056
 C        -1.9148781545        1.4497454527       -1.5966266297
 C        -1.1168790115        2.6505937861       -2.1513652468
 C        -0.2173091505        3.3573142462       -1.0897931155
 C         0.6572737823        4.5891244066       -1.4529202865
 O        -2.0907448872        0.4500992352       -2.2801580535
 O        -0.0605315982        2.7933688297       -0.0045854357
 C        -0.1345047529        2.1270350619       -3.4129448408
 C        -2.2508569707        3.7741022198       -2.5187124167
 C         0.7456490573        5.5446749319       -0.2599671480
 C         0.8428794537        7.0592630196       -0.9061346250
 C         1.9394585048        8.0765249518       -0.4728592086
 C         3.2934783104        7.6100685527       -1.0483847211
 C         4.5762863703        8.5528324802       -0.9904906578
 C         1.7094454722        9.4090282544       -1.1884287064
 C         1.8169630027        8.3082294678        1.0959445517
 O        -0.0572634292        7.3629603126       -1.7010367218
 O         3.2502075543        6.6111436568       -1.7224866171
 C         5.5579345254        8.1418479589        0.0649216168
 C         6.1935654541        6.7935770538       -0.3214859107
 C         6.4246418579        5.5717871933        0.8598563379
 C         5.2009955526        4.6605741502        0.7599744574
 C         5.1378171336        3.5494649943       -0.3302476331
 O         6.6453294834        6.5971772405       -1.4256476163
 O         4.2522994961        4.8640181199        1.4929809059
 C         7.6937533316        4.7807989453        0.4471617182
 C         6.6559342953        6.1348961458        2.2571128534
 C         3.9587447424        2.5440741742       -0.2514521154
 C         4.3005412763        1.2209963814        0.5062051949
 C         3.5631566078        0.5304148245        1.8116127830
 C         2.7837495934       -0.6702587143        1.0800579870
 C         3.6187624417       -1.7957741842        0.4938809352
 C         4.5557037240       -0.0037572739        2.8789857484
 C         2.4912155333        1.5214225094        2.3281354187
 O         5.2007142433        0.5212883410        0.0367001239
 O         1.6132010213       -0.6218664712        0.8771154289
 C         2.8042171148       -2.9663932108       -0.0293027859
 C         2.5194124005       -2.7733468786       -1.4733297441
 C         1.7775932028       -3.8795873009       -2.4102888108
 C         0.3648779895       -3.4739399416       -2.0416715490
 C        -0.2584383926       -2.3270947299       -2.7535942036
 O         2.7165237516       -1.6806672977       -2.0238358339
 O        -0.1200180119       -3.9873150026       -1.0211282134
 C         2.2546263627       -3.6255870156       -3.7987595334
 C         2.1757924938       -5.2749654307       -1.8860373060
 H        -6.7370759237       -5.7642483977       -2.0822455927
 H        -6.3244298947       -4.2567343700       -2.9865083471
 H        -5.8800066516       -5.8565919449       -3.6613310423
 H        -5.1544730017       -7.9917359785        0.3809332513
 H        -3.5997583945       -8.1544756702        1.3080799253
 H        -5.6482293924       -7.7193973099       -2.0162863971
 H        -4.0358156692       -8.6024832255       -2.1557825348
 H        -4.6432266624       -7.6783512102       -3.4151520417
 H        -1.6745128593       -6.9940457861       -2.2615762742
 H        -2.5155140907       -6.3514025827       -3.5855800630
 H        -2.0559929211       -5.3254376091       -2.2617503684
 H        -5.3186534815       -7.6131424723        2.6642642146
 H        -4.3821776690       -6.2119617926        2.6373986556
 H        -6.5034661903       -2.4616902771        1.7747325806
 H        -6.9109483134       -2.3438011822        3.4559789595
 H        -8.1726767379       -4.0581370126        1.2343706477
 H        -8.6276720730       -3.8410283646        2.8942750898
 H        -9.1024398262       -5.3142447298        2.0734603891
 H        -7.9671507659       -5.5410103538        4.7098622849
 H        -7.9476603965       -6.9952401626        3.6788728929
 H        -6.5096480821       -6.5204817012        4.5163752924
 H        -4.6199883352       -1.8333167238        4.0523783622
 H        -5.2420655905       -0.7684780674        2.7982842844
 H        -1.8884083441        1.3122282512        1.8230728606
 H        -0.8312363308        1.0727901245        0.6228972811
 H        -1.2412560824       -0.0044259846        3.6868188659
 H        -2.4041483105       -1.1000719926        4.5674267682
 H        -2.9885671988        0.4154848845        3.7180552693
 H        -1.2648882802       -3.0115255151        3.5090342529
 H        -0.9952806112       -3.0143780522        1.6574018177
 H        -0.2131053952       -1.7669341527        2.7481012271
 H        -3.6621354385        1.1656461067       -0.2188929292
 H        -2.7662782838        2.5979815453        0.0865685826
 H         1.6450684112        4.2814009548       -1.7360921862
 H         0.2303580099        5.0702660705       -2.2832861183
 H         0.8843971184        1.9194861265       -3.0303502385
 H        -0.1422256848        2.7560934130       -4.2893624047
 H        -0.6554085062        1.1661682713       -3.7773699265
 H        -3.1073315954        3.4632453161       -3.1090939966
 H        -2.7795270576        4.0697291284       -1.6682796656
 H        -1.8346363805        4.7249096224       -2.9340383993
 H         1.6423303771        5.3270010382        0.3858273227
 H        -0.2307525582        5.4508512920        0.2437922915
 H         4.9734050623        8.7109828267       -1.9790483489
 H         4.2312823714        9.5996236225       -0.6709864032
 H         0.5915469689        9.3392523694       -1.3324311401
 H         2.1345538688        9.5779640474       -2.1563977217
 H         2.1037737442       10.1817862873       -0.4818658097
 H         2.0916390533        7.3464304421        1.6995381033
 H         2.5963556263        9.0254657798        1.4266283589
 H         0.7979319171        8.6364083525        1.2992231761
 H         6.4085277625        8.9167924237        0.0083018666
 H         5.1012201148        8.2534580411        1.0351702382
 H         5.0459777431        4.0016413034       -1.3468233793
 H         6.0564727569        2.9753537447       -0.4343627378
 H         7.8452974519        4.0617873000        1.1549718399
 H         8.5085511825        5.4889154207        0.7410054434
 H         7.8176944276        4.3438277793       -0.5124098313
 H         7.5200671419        6.7355975833        2.2316068731
 H         5.7382594400        6.5591223246        2.5594607100
 H         6.8991287380        5.2160154757        2.8208981211
 H         3.7433233993        2.1351745377       -1.1584690744
 H         3.0938069263        3.1666154392        0.0089709988
 H         4.2273016164       -1.4022630467       -0.3204295052
 H         4.1961326651       -2.1433003221        1.3935495410
 H         5.4173445019        0.5972712898        2.7987244124
 H         4.7826985600       -1.0406654954        2.7263951924
 H         4.2101321041        0.1423914212        3.9346050284
 H         2.9264799799        2.4418157219        2.7324547859
 H         1.9233444169        1.8422845714        1.4393733980
 H         1.8281932286        1.0707036650        3.1305095281
 H         3.3264379500       -3.9362298793        0.0925192525
 H         1.8707950992       -2.9105232294        0.5418429524
 H         0.5351735821       -1.6558189198       -2.8657889542
 H        -0.5759500969       -2.4650235963       -3.7380711285
 H        -1.0055058871       -1.8705747215       -2.0933264193
 H         3.4149589490       -3.7235105483       -3.9338030229
 H         2.0460385794       -2.5871977218       -4.0504783211
 H         1.8017213744       -4.3582744116       -4.4087066227
 H         3.2327133263       -5.4049063490       -1.9688078362
 H         1.7008879217       -5.4438286368       -0.9102320420
 H         1.9464946370       -6.0238995765       -2.6541918632
 Na       -2.3103322214       -3.7806360186       -0.2014924143
