155

 C        -5.8493470304       -5.3341299079       -2.7910441842
 C        -4.5331385294       -5.2611179962       -2.0491772475
 C        -3.7272124277       -6.5075067019       -1.6270395795
 C        -3.4835125995       -6.7165851561       -0.1079171007
 C        -4.3614442361       -7.6370978128        0.7078795666
 C        -4.4139269775       -7.8428928441       -2.0832917838
 C        -2.3325123769       -6.4528215837       -2.1904737268
 O        -4.0240886598       -4.1734535105       -1.9050294386
 O        -2.6891345466       -5.9704755416        0.4722693320
 C        -5.1056378810       -6.9527206598        1.9075173656
 C        -6.2834401577       -6.0809386789        1.5825290886
 C        -7.0103157909       -5.2624805374        2.7130929518
 C        -5.9509962949       -4.2052026701        3.1318766200
 C        -6.1212860725       -2.7269760500        2.7127774747
 O        -6.5932165265       -5.9134973831        0.3886642480
 O        -4.9537765235       -4.6103431314        3.7125097852
 C        -8.3024934916       -4.7106463497        2.1837044705
 C        -7.2527452629       -6.1125126146        4.0028533634
 C        -4.8016628737       -1.8789664508        3.1075281232
 C        -3.6461341889       -2.2477952239        2.2989596657
 C        -2.3189795477       -1.3293999352        2.5117045492
 C        -2.0768976455       -0.6761236775        0.9782226977
 C        -1.9957334470        0.7996767398        0.9007426755
 C        -2.3724356694       -0.2463784417        3.6275171585
 C        -1.1404518374       -2.4357526298        2.6390538460
 O        -3.6598409127       -3.1157454059        1.4209587619
 O        -1.9515614328       -1.3504556153       -0.0231592488
 C        -2.6821828169        1.3661440530       -0.3565481425
 C        -1.8068851552        1.2508851114       -1.6491111797
 C        -1.1687277618        2.6988719404       -2.1692846873
 C        -0.3263089560        3.4820541673       -1.0406512375
 C         0.3223100422        4.7716082345       -1.6367247426
 O        -1.9957407946        0.4079413175       -2.4662780910
 O        -0.0966879043        3.0002066964        0.0343023979
 C        -0.3094521522        2.3753855967       -3.3817299909
 C        -2.2929036825        3.5533419467       -2.7645089476
 C         0.9626040162        5.6804877285       -0.6146374504
 C         0.8009544306        7.1434187999       -1.1064391125
 C         1.9135579885        8.2202905815       -0.5482600809
 C         3.4061808278        7.6991738128       -1.1570191988
 C         4.5871860158        8.5881247962       -0.8825590945
 C         1.4901121638        9.6870105327       -1.0884290542
 C         2.0384079385        8.2220919980        0.9306161906
 O        -0.0596401342        7.5497043138       -1.9010387722
 O         3.5051751065        6.5734773799       -1.6385345442
 C         5.5016091711        8.0065734684        0.2763452578
 C         6.1898350065        6.6956967569       -0.1522954379
 C         6.4415237771        5.6268040030        0.9742663662
 C         5.2004634966        4.5619896124        0.9931535938
 C         5.3042666570        3.4742016126        0.0396668272
 O         6.5816763767        6.5147736799       -1.2823059651
 O         4.3138150735        4.7094616282        1.8253456845
 C         7.7903676344        4.8948149650        0.5161259727
 C         6.5276778563        6.3027966672        2.4313211368
 C         4.0000077820        2.6276129511        0.0345391024
 C         4.3090001676        1.1113833702        0.4391993255
 C         3.3758481723        0.5586119579        1.6103482809
 C         2.6812353669       -0.6503462970        1.1042269172
 C         3.5508664213       -1.9065409396        0.6987558590
 C         4.4667079821        0.1768997972        2.7081822747
 C         2.3934490286        1.5542168060        2.2789116307
 O         5.2548945458        0.5566731826       -0.0196162305
 O         1.4369391435       -0.7747847947        1.1064549731
 C         2.7494827709       -2.9394836178       -0.1279442698
 C         2.7086425612       -2.6722885095       -1.6602304819
 C         1.7885149508       -3.7991347125       -2.4199753073
 C         0.3369587517       -3.4296658337       -2.1245871814
 C        -0.3213910710       -2.2795707562       -2.7701525282
 O         2.9758125542       -1.6250469492       -2.0916911135
 O        -0.1886153069       -3.9690257130       -1.1701609352
 C         2.1291835627       -3.6867531973       -3.9808091237
 C         2.1739273950       -5.2023633269       -1.9585881328
 H        -6.4766053393       -6.0170092744       -2.2152299906
 H        -6.3005328474       -4.3966737949       -2.8104531770
 H        -5.6668921676       -5.7301496931       -3.8188349694
 H        -5.2843089980       -8.1339752220        0.1951860023
 H        -3.5960884877       -8.3462058603        1.0841042226
 H        -5.4392054510       -8.0463508145       -1.8807761241
 H        -3.6892987508       -8.6009123531       -1.6658833133
 H        -4.4772182241       -8.0151307904       -3.1554910216
 H        -1.9912445342       -7.5079253987       -2.3553533396
 H        -2.2652874538       -6.1006893656       -3.2623218177
 H        -1.5071091102       -5.9340321041       -1.6938355597
 H        -5.4653530056       -7.7931492554        2.5955813356
 H        -4.4915988412       -6.2927702000        2.5074656545
 H        -6.2676947888       -2.8507882071        1.5962195737
 H        -7.0191679817       -2.1867505507        3.1842297815
 H        -8.1188439116       -4.1854684603        1.2305274952
 H        -8.8225397282       -3.9313172617        2.7608361394
 H        -9.0087777422       -5.4350722627        1.8571153530
 H        -7.5872954230       -5.4876124195        4.8202536149
 H        -8.0574948959       -6.8760578824        3.8137931812
 H        -6.4751775993       -6.7817122291        4.2752867404
 H        -4.4698847389       -1.9266370615        4.1531099963
 H        -4.9210559671       -0.7560110913        2.8087401072
 H        -2.3813035953        1.2054239492        1.8454715902
 H        -0.9182795360        1.1923637281        1.0000403412
 H        -1.4879806315        0.3295065917        3.6195282709
 H        -2.4178688330       -0.6713337539        4.5399389361
 H        -3.2133329854        0.4214863134        3.4424366982
 H        -1.2162169624       -2.8994715057        3.6224468124
 H        -1.2619055946       -3.1218325921        1.8399886066
 H        -0.1643411356       -1.9241752934        2.6034151738
 H        -3.6714756695        0.8659725769       -0.4652602714
 H        -2.9195765643        2.4093074985       -0.1486918308
 H         0.9858196275        4.4820532011       -2.4941114306
 H        -0.4725260137        5.3618123114       -2.1981809856
 H         0.6722652005        2.1611224501       -2.9569089880
 H        -0.2433585496        3.2368069730       -4.1013924922
 H        -0.6844550641        1.5811266093       -3.9461504593
 H        -2.9788661126        2.9708069198       -3.4323857949
 H        -3.0660643245        4.0546459174       -2.0989080132
 H        -1.8813951670        4.3807437873       -3.2697668976
 H         1.9740880138        5.5238984502       -0.3413055298
 H         0.3327268515        5.5465136445        0.2491211578
 H         5.1947400272        8.5185885092       -1.8299107892
 H         4.3275655761        9.6102773805       -0.8167692826
 H         0.6139685118       10.0443332973       -0.7599273324
 H         1.2614119835        9.4611195782       -2.1178594901
 H         2.3542534882       10.3703706981       -1.0025725092
 H         2.2434715748        7.2293878733        1.2040567953
 H         2.8104241379        8.8205200525        1.3132262752
 H         1.0573398219        8.3800805279        1.3207219366
 H         6.2418704620        8.7196506871        0.5070631125
 H         4.9002327439        7.7773923581        1.1841773573
 H         5.4464276032        3.9354202490       -0.9295624747
 H         6.1582790100        2.7655345423        0.0019223905
 H         8.1220950412        3.9666009630        1.1185822572
 H         8.5821786768        5.5622348756        0.6203573247
 H         7.6614812517        4.6455103691       -0.5539605995
 H         7.2339587330        7.1473277821        2.2473448845
 H         5.5344110057        6.7309220319        2.6625835462
 H         7.0564991679        5.6310208271        3.0465059653
 H         3.4716114017        2.6781905182       -1.0048158174
 H         3.2617990532        3.1861731218        0.6776291799
 H         4.3650078920       -1.5222503371        0.0127001879
 H         3.8888515769       -2.3831686968        1.6164235853
 H         5.5133866092        0.5336594039        2.3980902261
 H         4.4635193402       -0.9365150573        2.7159017306
 H         4.1913377354        0.5983695867        3.6633897147
 H         2.6803809406        2.6146548944        2.3131904092
 H         1.4666490672        1.5001395805        1.6814291362
 H         2.2220587857        1.2430186950        3.2827717327
 H         3.1283344904       -3.9390264779        0.0653089560
 H         1.7231758234       -2.8305316530        0.2849861752
 H         0.4021892531       -1.4239937610       -2.9071598433
 H        -0.5993373747       -2.5694474103       -3.8727095698
 H        -1.2815955415       -2.0100695408       -2.3167564630
 H         3.0208272883       -3.1710548128       -4.0857093381
 H         1.5486942914       -3.0424704655       -4.6733467944
 H         2.2497967071       -4.7794257544       -4.2713079967
 H         3.1773008521       -5.3850071425       -2.2933445035
 H         1.9173977672       -5.3513045196       -0.9087660890
 H         1.7346798955       -5.9505293005       -2.5451507105
 Na       -2.3807482437       -3.6776320325       -0.4071207699
