155

 C        -5.7008871914       -5.5637841289       -2.6994470898
 C        -4.3618691989       -5.3992356325       -2.0382824169
 C        -3.5930434785       -6.7205773221       -1.6530928604
 C        -3.5834181903       -6.6587887568       -0.0010794435
 C        -4.4080173812       -7.7091565467        0.7234632850
 C        -4.2255536938       -7.8948409061       -2.2602431705
 C        -2.2215647707       -6.6898813444       -2.1215446604
 O        -3.8990589797       -4.3095422833       -1.6961787623
 O        -3.0169675816       -5.8088947233        0.6098020163
 C        -5.1685995968       -7.1096512729        1.9226482716
 C        -6.2207818962       -6.1340525168        1.5269162355
 C        -6.8979149044       -5.3093329519        2.6835858584
 C        -5.8674130488       -4.2134222419        3.0862379227
 C        -6.0214349590       -2.7782904503        2.6672865482
 O        -6.3461249817       -5.8568173229        0.3740543548
 O        -4.9278033390       -4.5560820175        3.7875589825
 C        -8.2252105283       -4.6822515943        2.1366207056
 C        -7.1911346687       -6.2050708188        3.8607907900
 C        -4.8944744349       -1.9399791492        3.2085092537
 C        -3.5870062306       -2.2629898826        2.2679456222
 C        -2.3011717461       -1.4090316699        2.4832516779
 C        -2.2246362475       -0.7011851628        1.0004976885
 C        -2.1519834021        0.8917320174        0.8317257103
 C        -2.4732493844       -0.4135173616        3.6711966003
 C        -1.0850258784       -2.2967276229        2.6944179765
 O        -3.7330070776       -3.1891588135        1.4870494447
 O        -2.2662545797       -1.3447983777       -0.0453033923
 C        -2.7051093803        1.3651586040       -0.5103292230
 C        -1.7621143481        1.3159099467       -1.6905651566
 C        -1.1889713563        2.7716866477       -2.2912810487
 C        -0.5141991794        3.6456883042       -1.3236480725
 C        -0.0708457025        5.0006620662       -1.7820529249
 O        -1.6611197462        0.2879469179       -2.3733320614
 O        -0.2783137891        3.2529154211       -0.1694802690
 C        -0.2425341389        2.3342175835       -3.3863882295
 C        -2.4894624492        3.4410910365       -2.7886234606
 C         0.8928722183        5.7507534400       -0.8574246459
 C         0.8784728751        7.3082944662       -1.2577703384
 C         1.9717109398        8.2662862946       -0.7713911985
 C         3.3851661149        7.7604304386       -1.1904458352
 C         4.6181527087        8.6419092566       -0.7534714116
 C         1.6497642523        9.7754108457       -1.1148068607
 C         2.0511903132        8.0026261388        0.8998342315
 O         0.0316699745        7.6376369226       -2.0003270754
 O         3.6780061649        6.6715172061       -1.6250533140
 C         5.2602957922        7.9243717348        0.4548552748
 C         6.1697327751        6.6812363497       -0.0132228510
 C         6.5707696647        5.6539095932        1.1046054939
 C         5.3815543072        4.6370661567        1.1651838057
 C         5.3384273926        3.5083783702        0.0552579346
 O         6.3852146267        6.4358218228       -1.1745720353
 O         4.4768772360        4.6172355179        2.0015303831
 C         7.9336683408        4.9937419271        0.9405777549
 C         6.6389260832        6.4105294190        2.5702231080
 C         4.0317334066        2.6550392752       -0.0785407541
 C         4.1212527867        1.2952116238        0.4701948728
 C         3.3232914288        0.5936933069        1.6873004722
 C         2.6442174108       -0.7956378550        1.2365945676
 C         3.5216776602       -1.9056412330        0.6794815764
 C         4.4179473243        0.2496994606        2.8391383092
 C         2.2248787393        1.5652936690        2.2579098823
 O         5.0328184263        0.5812321886        0.0006568220
 O         1.4527174079       -0.8040701457        1.3031876238
 C         2.7936855737       -3.0209572652       -0.1948988361
 C         2.6730380339       -2.6388910694       -1.6515429115
 C         1.7620453787       -3.7018135365       -2.5154134426
 C         0.3082359075       -3.3749686342       -2.2148902266
 C        -0.4491421646       -2.2794047643       -2.9402971133
 O         3.2881488731       -1.7333325143       -2.2276399171
 O        -0.2607606751       -4.1044087739       -1.3965079725
 C         2.0997188652       -3.5598291445       -4.0129774473
 C         2.0912487712       -5.0831809355       -2.0696117068
 H        -6.4307844776       -5.9565866853       -2.0148818829
 H        -6.0329711967       -4.5157144308       -3.0062966078
 H        -5.5733379205       -6.1366167371       -3.5945885175
 H        -5.1263114291       -8.1065672380        0.0969385279
 H        -3.7428244594       -8.4969500137        1.1219577758
 H        -5.3206642810       -8.0093076792       -2.1562606620
 H        -3.8361737713       -8.8136269793       -1.8993798653
 H        -4.1756259402       -7.7874120459       -3.3388688533
 H        -1.7744499895       -7.6383691257       -1.9999747811
 H        -2.0047206931       -6.4607448689       -3.1269513364
 H        -1.6520406436       -6.0108438371       -1.5480442304
 H        -5.6072123264       -7.8924695969        2.5106316016
 H        -4.4156883603       -6.5896317197        2.6002258379
 H        -6.1037788052       -2.8960300282        1.5859757223
 H        -6.8419568318       -2.2489617250        3.0911373719
 H        -8.2850894119       -3.9887001554        1.3465960415
 H        -8.8323339662       -4.1051763754        2.8761533897
 H        -8.8247535487       -5.5324331802        1.7577063235
 H        -7.9629845728       -5.7675538698        4.4768058121
 H        -7.5227061892       -7.1716891845        3.5754526528
 H        -6.2572293288       -6.5171837960        4.3578671424
 H        -4.5828094498       -2.3169340934        4.2328817491
 H        -5.2110965198       -0.9301641414        3.2451602884
 H        -2.4745390521        1.4624053388        1.7037763019
 H        -1.1234689479        1.1527005833        0.8051211884
 H        -1.5336820075        0.1255410840        3.9035047483
 H        -2.6438221656       -1.0106248840        4.6343051915
 H        -3.2185994697        0.3226125825        3.4410989424
 H        -1.1782935729       -2.6342762356        3.6860798969
 H        -1.0886732242       -3.1426650555        1.9920260351
 H        -0.2254523603       -1.7034476698        2.6273930492
 H        -3.6193565682        0.8254259696       -0.7800218364
 H        -3.0242310580        2.4150852544       -0.3380027635
 H         0.2818534169        4.9776331968       -2.8175387789
 H        -1.0180895372        5.5346781874       -1.9392627355
 H         0.3862182333        1.5059522192       -3.1236797972
 H         0.3552713096        3.1258156176       -3.7133728189
 H        -0.8497422396        2.1230679097       -4.2904623246
 H        -3.0465222154        2.8731107968       -3.4710123813
 H        -3.1769778173        3.7093413209       -2.0243897693
 H        -2.3143842370        4.4520859659       -3.2562711259
 H         1.8912495035        5.2141862437       -0.8632689349
 H         0.5450000743        5.5961526790        0.2305179566
 H         5.3432251778        8.7920724377       -1.5041330562
 H         4.3031729936        9.6586023659       -0.4520691319
 H         0.9685001840       10.1965331129       -0.2411261923
 H         0.9303284395        9.8280733164       -1.9797643909
 H         2.5474727823       10.3443482612       -1.1202043448
 H         2.5279764067        7.0210891729        1.1055435630
 H         2.7319012833        8.8291021929        1.2666039677
 H         1.0471839985        7.9284971216        1.3609013993
 H         5.8256557992        8.6993107305        1.0392652083
 H         4.4737167525        7.4944443587        1.0535078691
 H         5.6950769932        3.6215465597       -0.9846488724
 H         6.0865810632        2.7739886553        0.3140280398
 H         8.1076125121        4.2725544251        1.6861380048
 H         8.7758996042        5.7714349435        0.9915431053
 H         7.9489724732        4.5194064577       -0.0415543279
 H         7.1611732932        7.3500478914        2.4708426744
 H         5.6280841715        6.6827437603        2.7369892992
 H         7.1974177705        5.7177079964        3.2467103592
 H         3.7657426192        2.7301494597       -1.1015591396
 H         3.2597337905        3.1293329879        0.4186618447
 H         4.3270229939       -1.4761202800        0.1865992831
 H         3.8850697622       -2.4080785643        1.5790236722
 H         5.3998118468        0.1945120376        2.4437344552
 H         4.1907704641       -0.7132964519        3.2548365938
 H         4.2860714663        1.0678196526        3.5737806193
 H         2.5522983855        2.0344280885        3.1575195217
 H         1.9097247374        2.3022222778        1.5927144453
 H         1.3300927235        0.9962314215        2.5467436811
 H         3.4144476217       -3.9301048504       -0.0778076341
 H         1.7613358399       -3.1479487069        0.1635092917
 H         0.1369477264       -1.4012399589       -3.2172921783
 H        -0.9843123370       -2.6338098346       -3.7781542426
 H        -1.2662479239       -2.0306476773       -2.2279503951
 H         2.9370356616       -2.8344331749       -4.1654208091
 H         1.4293111404       -2.9847439513       -4.5919309649
 H         2.1262063976       -4.5038243344       -4.4499457674
 H         3.1810473490       -5.2465697865       -2.1253729859
 H         1.6989803429       -5.0863998172       -1.0767916834
 H         1.6112629753       -5.9797627447       -2.5858088087
 Na       -2.2502119598       -3.6097875189       -0.4538505844
