155

 C        -5.5573903021       -5.7647839325       -2.9677255834
 C        -4.2095399994       -5.6323005029       -2.2043700479
 C        -3.5795881536       -6.8565694180       -1.5358191498
 C        -3.6310603085       -6.8587677058        0.0368228816
 C        -4.4366425109       -7.9501623676        0.7026419793
 C        -4.1122390435       -8.1930761014       -2.2087262888
 C        -2.0424983917       -6.7763875709       -1.8785571991
 O        -3.6889320121       -4.5004707064       -2.1712332073
 O        -3.1750110002       -5.9297159083        0.6466997275
 C        -5.0746249676       -7.3282556955        1.9754157739
 C        -5.9681879000       -6.2489862748        1.5998508949
 C        -6.8084810645       -5.4144027167        2.6166495369
 C        -5.9218400401       -4.3315479419        3.2645687223
 C        -6.0714641261       -2.8125993858        2.9592227041
 O        -5.9835553490       -5.9399702226        0.4277298246
 O        -5.0375348989       -4.6981831649        4.0574882117
 C        -8.0470470628       -4.8777558529        1.9570166865
 C        -7.2576952964       -6.3522945486        3.7839643658
 C        -4.9976252988       -1.8630809697        3.2627859849
 C        -3.6704335710       -2.2046350776        2.3937857056
 C        -2.4635658718       -1.3239447394        2.1692705498
 C        -2.4698579356       -0.6474282569        0.8045790211
 C        -2.3491231602        0.9258568070        0.7357456038
 C        -2.3889044052       -0.3014784809        3.4058350299
 C        -1.1671695903       -2.2405697604        2.3602223426
 O        -3.7290342257       -3.2314745214        1.7551751194
 O        -2.3931620598       -1.2789699022       -0.2313572898
 C        -2.7822194307        1.5936729598       -0.5375994385
 C        -1.6663291244        1.5330657958       -1.6535699741
 C        -1.4710846644        2.7756381353       -2.6619641362
 C        -0.7743840240        3.9298330276       -1.6196342081
 C        -0.5863790118        5.3737933692       -1.8984639061
 O        -0.9360096010        0.5696695861       -1.6597076059
 O        -0.5317842946        3.5153980162       -0.5191645963
 C        -0.2992532804        2.4304221848       -3.5787398349
 C        -2.8540062121        3.2196558606       -3.2459371901
 C         0.6633540463        5.8812575877       -1.3030461664
 C         0.8453608506        7.4244066592       -1.6021697570
 C         1.8710994347        8.2150215922       -0.6550911160
 C         3.3446248181        7.7400323783       -1.1271277376
 C         4.6651660177        8.5169452248       -0.5935635198
 C         1.8803757347        9.7787027089       -0.9636694350
 C         1.7158905182        7.9968130635        0.8595528736
 O         0.1674910236        7.9928046557       -2.3920239302
 O         3.4373421512        6.8534038595       -1.9533706482
 C         5.3670768512        7.9425390934        0.6847123489
 C         6.2648738352        6.5744493806        0.3792930076
 C         6.6552273395        5.6268795297        1.5679923086
 C         5.5145819180        4.5659067186        1.5042042609
 C         5.3215556074        3.5614821826        0.3694307682
 O         6.3997021548        6.2647991723       -0.7904345408
 O         4.7483841377        4.5438102648        2.4555658304
 C         8.0081576106        4.9131007941        1.1674484322
 C         6.8082975715        6.1688873448        3.0275442075
 C         4.0227828728        2.8831916008        0.2235805110
 C         4.1703428980        1.4363873502        0.5600486670
 C         3.2157209972        0.6553234003        1.6633168028
 C         2.5592936994       -0.6580046507        1.1168640305
 C         3.4761763874       -1.7879180384        0.5445767444
 C         4.1226580437        0.4039066392        2.9133239845
 C         2.0391143017        1.5145567353        2.0970463615
 O         5.1747792773        0.8588596716        0.1650206426
 O         1.3565611974       -0.7476637307        1.2240593488
 C         2.6722540431       -2.8883389392       -0.2563048204
 C         2.7667362351       -2.6239158418       -1.7996589298
 C         1.8510784259       -3.6639984730       -2.7152664144
 C         0.4637692945       -3.4211195785       -2.1772232275
 C        -0.4933168091       -2.5043984737       -2.9953803967
 O         3.4834844995       -1.8931372807       -2.3295782313
 O        -0.0460273772       -3.9188858563       -1.1587246406
 C         2.1879294207       -3.2464698804       -4.1679406433
 C         2.2467043530       -5.1957005988       -2.3960479384
 H        -6.2720791728       -6.0637646889       -2.2531096992
 H        -5.8558716825       -4.8560810330       -3.5333316695
 H        -5.4273926885       -6.5522751310       -3.7159811647
 H        -5.1931005715       -8.3485222690        0.0742479101
 H        -3.8187191413       -8.8625467965        0.9706149328
 H        -5.1905905664       -8.4153968039       -2.1409729254
 H        -3.7303155434       -9.1160555877       -1.7734105037
 H        -3.7616121404       -8.1738376352       -3.2419485787
 H        -1.4671391306       -7.3871514434       -1.1623828952
 H        -1.7628329665       -7.1100855848       -2.9171420248
 H        -1.6219322597       -5.7946111395       -1.8337449420
 H        -5.6495153896       -8.1245743828        2.4686430478
 H        -4.2950795668       -6.8500605491        2.7264015083
 H        -6.1358238068       -2.8083598010        1.8529726458
 H        -7.0516516249       -2.5096075303        3.4119032643
 H        -7.8027810871       -4.3557824861        1.0911665416
 H        -8.6823649625       -4.0725428633        2.3897040788
 H        -8.7670241958       -5.6064586859        1.6322232372
 H        -7.6823590028       -5.7458602768        4.5620733036
 H        -8.1062825789       -6.9914940966        3.5245110791
 H        -6.4562123320       -7.0206825477        4.2160447428
 H        -4.5795440520       -1.7241266647        4.3186092334
 H        -5.1516726573       -0.8889501845        2.8284443071
 H        -2.9649190774        1.3893029555        1.5770242492
 H        -1.3076131279        1.1503461094        0.9826300589
 H        -1.5842169322        0.3666937695        3.2641916988
 H        -2.3412381825       -0.7690061389        4.3840186394
 H        -3.2832635731        0.2643318486        3.4293606999
 H        -1.3657259812       -2.8414556096        3.2000696380
 H        -1.0416183039       -2.9277151541        1.5061121294
 H        -0.3334064434       -1.5990984933        2.5113765284
 H        -3.7598007767        1.2124961315       -0.9112416525
 H        -2.9014199694        2.6625405491       -0.1865416544
 H        -0.6856948843        5.4699555858       -3.0072442392
 H        -1.4844585397        5.9917332722       -1.5812190333
 H         0.5652706192        2.4063536252       -2.9392647168
 H        -0.0958738620        3.0868271618       -4.3818320663
 H        -0.3377404188        1.4209710279       -4.0088934498
 H        -3.3702416070        2.4733226753       -3.7352180412
 H        -3.4364767887        3.4537929111       -2.3305898007
 H        -2.9884625536        4.0539667792       -3.9936858874
 H         1.5130163534        5.3234365873       -1.7611206041
 H         0.8475631102        5.5798301087       -0.2078298177
 H         5.3188257450        8.5680483244       -1.4092907019
 H         4.3911376442        9.5364016383       -0.3746276025
 H         0.8781890139       10.0609952931       -1.3950092637
 H         2.6975245213        9.9708899146       -1.7953907373
 H         1.8928358597       10.4251057261       -0.1530071479
 H         1.5648784832        7.0071210342        1.0256680134
 H         2.5902958547        8.4566674714        1.3277382455
 H         0.9243792289        8.6387592238        1.2625141430
 H         6.0272958021        8.6992924782        1.1280805627
 H         4.5205797485        7.8006306775        1.3242524046
 H         5.6267598094        4.0820850385       -0.5703796895
 H         6.0814578004        2.8161868253        0.3727648464
 H         8.0909631669        4.1180353955        1.9273092814
 H         8.8216174669        5.6631346657        1.3611137115
 H         8.2200151910        4.5292153059        0.1495703378
 H         7.5045936484        7.0303043966        2.8730133956
 H         5.8329958823        6.4599617346        3.4990699056
 H         7.2029287160        5.2842087489        3.5821748335
 H         3.5494857968        2.8502880389       -0.7519202876
 H         3.4586216279        3.4338509060        0.7995058874
 H         4.2742948943       -1.3783000606        0.0248292476
 H         3.8410980343       -2.1804305967        1.4861462659
 H         4.0032576238       -0.6528418427        3.1650197502
 H         3.8024406423        1.0837487674        3.7148502331
 H         5.1502833865        0.7381076030        2.6168867252
 H         2.2996250379        2.5660833140        2.2220515227
 H         1.2952901205        1.4422307872        1.3620042134
 H         1.5074388085        1.1674022349        3.0065508369
 H         2.9480739537       -3.9696037497       -0.0774897414
 H         1.6264913951       -2.7295281399        0.0397667646
 H        -0.3256697819       -1.4035885315       -2.6219103325
 H        -0.4476394626       -2.5259515894       -4.1092341517
 H        -1.5523243741       -2.8279873448       -2.7762385517
 H         2.9721838750       -3.9435590596       -4.5619299811
 H         2.5941656463       -2.2554790248       -4.2972985769
 H         1.3170031347       -3.1195265930       -4.7870735694
 H         3.3236193051       -5.1515814433       -2.5308344357
 H         2.1270613562       -5.5644427602       -1.4457536205
 H         1.6841556113       -5.8898544113       -3.0850765596
 Na       -2.3410109206       -3.8461809569       -0.2238741757
