155

 C        -5.3880234024       -6.8167151244       -2.4845234934
 C        -4.1456551160       -6.1936608712       -1.9563221126
 C        -2.9895479398       -7.1500457850       -1.4577191391
 C        -2.7749513547       -6.8237709957        0.1383191359
 C        -3.1335964562       -7.8265899330        1.2146511159
 C        -3.3551208374       -8.6548356247       -1.7122382367
 C        -1.4920161869       -6.7673070839       -2.1352807468
 O        -3.9330295304       -5.0100605817       -2.0522274475
 O        -2.3797803441       -5.7272762610        0.4769965625
 C        -4.1469461582       -7.1826648050        2.1889283536
 C        -5.3679126524       -6.6272721366        1.4152224619
 C        -6.4280866293       -5.7838751255        2.4609919145
 C        -5.6406193256       -4.4481269406        2.7538476456
 C        -6.0584407661       -3.0141165072        2.2261213924
 O        -5.4942505773       -6.6398553937        0.2412494738
 O        -4.7021181587       -4.4813525516        3.5897009492
 C        -7.6501466976       -5.6166735000        1.6146468743
 C        -6.6761163483       -6.6360699424        3.8132295171
 C        -4.9278177950       -1.9742281176        2.4506108317
 C        -3.7267084403       -2.2165617609        1.4551924298
 C        -2.4942502762       -1.3849823552        1.6095724988
 C        -2.4854420307       -0.6050578445        0.1360164144
 C        -3.1173882462        0.8069122631        0.1719183101
 C        -2.4632309990       -0.3851574227        2.7902374435
 C        -1.3730431740       -2.4665102998        1.7347948200
 O        -3.8045823919       -3.0422828224        0.5455313683
 O        -2.2719206867       -1.1936905491       -0.8737738104
 C        -3.0210373883        1.6608924958       -1.0970937459
 C        -1.6060852145        1.9230715384       -1.4689286604
 C        -1.3995621906        2.9814412424       -2.6892201131
 C        -1.3514875018        4.4168574706       -2.0833279877
 C        -0.2315668202        5.3755814907       -2.4645664357
 O        -0.6825429937        1.4770442421       -0.8867271887
 O        -2.2077574509        4.7077533945       -1.2531305987
 C        -0.1233292812        2.7062466137       -3.6232203116
 C        -2.7107662326        2.9290606554       -3.5633693075
 C        -0.1734064277        6.6452920200       -1.6899103182
 C         1.1453447936        7.3581945265       -2.0167374047
 C         1.8634653836        8.3695605062       -1.0551579646
 C         2.6660865859        7.5146225359        0.1541129339
 C         3.8384289249        8.3167272382        0.8788299987
 C         2.9574125022        9.1211996028       -1.8042027326
 C         0.8866516890        9.1954911212       -0.1957508941
 O         1.6348248728        7.1482875215       -3.0660013520
 O         2.4292116659        6.3623748425        0.4974351846
 C         4.5827541351        7.5621711291        2.0977965254
 C         5.5906900502        6.7182837277        1.3657507745
 C         6.1697095210        5.3407471791        1.9865019051
 C         4.9537129047        4.2623787894        1.8124926412
 C         4.9223495386        3.5066256377        0.4476826545
 O         6.0589817994        7.1400795309        0.3309968764
 O         4.1591103427        4.1243943810        2.7280472026
 C         7.3769739610        4.9843426607        1.1214472260
 C         6.3865284481        5.5964631813        3.4872677177
 C         3.7802037570        2.5151512562        0.4235096925
 C         3.7949433430        1.5246834313        1.5798397172
 C         2.6587548601        0.5284803188        1.8984096865
 C         2.8339215385       -0.7274801908        0.9107430619
 C         4.1751037108       -1.2340608660        0.4127956562
 C         2.7791069145       -0.0957403237        3.2711450321
 C         1.3589913430        1.2190742097        1.6620978125
 O         4.8824054520        1.4723052501        2.1962328030
 O         1.8744120875       -1.2743416287        0.4852975654
 C         4.0251900295       -2.3678801790       -0.4979402121
 C         2.9818956287       -2.0378983530       -1.7426561309
 C         2.0360096700       -3.3302031790       -2.2774519951
 C         0.5715159757       -2.9679421015       -2.0996746544
 C         0.0005473251       -1.8045440492       -2.8016030315
 O         3.0429176998       -1.0299520545       -2.2838794213
 O        -0.1927134887       -3.7207082419       -1.5287728376
 C         2.3145292327       -3.5407062074       -3.7877475155
 C         2.3464827151       -4.6135894795       -1.4357888054
 H        -5.6479890673       -7.6237714628       -1.8067152904
 H        -6.1931685018       -6.0692833483       -2.5613700789
 H        -5.1602634941       -7.1030503642       -3.4517493250
 H        -3.5552137630       -8.6735906505        0.6750238090
 H        -2.2360241389       -8.0383518854        1.7109535041
 H        -4.2735729209       -8.9585416070       -1.1895101389
 H        -2.4896294814       -9.2642468993       -1.4701550064
 H        -3.4922070987       -8.8089128634       -2.8084206211
 H        -0.7649057580       -7.5313144536       -1.6772243378
 H        -1.6503905089       -6.9843678867       -3.2160588058
 H        -1.1486203619       -5.7367714800       -1.9526992418
 H        -4.4810515928       -7.7656873398        3.0539482006
 H        -3.7430899562       -6.2918302074        2.5213065657
 H        -6.3625423560       -2.8509568380        1.2451729422
 H        -6.8779052707       -2.7795113745        2.8576505321
 H        -8.1620703031       -4.7057376441        1.8894499020
 H        -8.2898530241       -6.4889695599        1.7189510095
 H        -7.6016357126       -5.6562665694        0.5190731941
 H        -7.2680762149       -6.0470108874        4.5366080590
 H        -7.1485649794       -7.4929470041        3.4125250169
 H        -5.7089648054       -6.7913883063        4.2215028191
 H        -4.6178469826       -2.1894552050        3.4022468655
 H        -5.0614381081       -0.8986957725        2.3179439333
 H        -4.1708689206        0.8982233172        0.4680202895
 H        -2.7332983857        1.4571375480        0.9226416490
 H        -1.4862701560        0.0409907597        2.7671953090
 H        -2.4790428099       -0.9728990981        3.7369682394
 H        -3.2475156799        0.3281797860        2.8772568335
 H        -1.4648792818       -3.0914349488        2.6605707973
 H        -1.3473927704       -3.2881500981        0.9231511494
 H        -0.4107387829       -1.9353782712        1.7451333248
 H        -3.5211033607        1.2004401527       -1.9764868555
 H        -3.5048599209        2.6739589419       -0.9349972073
 H         0.6880359851        4.7653527505       -2.2145157817
 H         0.0198152715        5.5583117525       -3.5444386717
 H         0.7015868942        2.1613745702       -3.1168835112
 H         0.3010791629        3.6407355974       -4.0382236879
 H        -0.4362999767        2.0264823414       -4.4471988257
 H        -2.9727914656        1.8710718295       -3.4768906434
 H        -3.4278247075        3.5001091320       -3.0448005815
 H        -2.5805697614        3.2252133474       -4.6428895334
 H        -0.0355545601        6.4308425858       -0.5548966914
 H        -1.0475521536        7.3526978373       -1.8187428007
 H         4.6545028396        8.5917178018        0.2115844272
 H         3.4341823414        9.2145857691        1.1783898624
 H         2.7193386581       10.0918684070       -2.4318231126
 H         3.4388314392        8.4386523376       -2.5261230269
 H         3.6927310624        9.5442366912       -1.1594550621
 H         0.2907376268        8.4117073321        0.3715616483
 H         1.3373014161        9.7526456848        0.5880897584
 H         0.2782485177        9.8396800793       -0.7895893049
 H         5.0879007653        8.2349304785        2.7442525892
 H         3.8449381423        6.8835304235        2.6224854680
 H         4.9715268423        4.2866430102       -0.3301690061
 H         5.7961014245        2.8725986544        0.5122504074
 H         7.7430967492        4.0259370589        1.3283467394
 H         8.2731989630        5.6726134516        1.3320054040
 H         7.0910972269        5.0013637695        0.0458297726
 H         7.1233212760        6.2827252295        3.8381405033
 H         5.4229389440        5.7064743516        3.9284452088
 H         6.5780898579        4.6457515395        4.0635687775
 H         3.6156550606        1.9372550568       -0.5547734409
 H         2.8400195197        3.1008073557        0.3811587903
 H         4.7488671248       -0.4357885049       -0.0096590194
 H         4.6912698496       -1.6675281846        1.2513606017
 H         3.1275872145        0.5310433029        4.0906204640
 H         3.5604050759       -0.9139518337        3.2171481870
 H         1.8346142840       -0.5864570005        3.6023243244
 H         1.2534880342        1.8713515300        2.5575841387
 H         1.3490437708        1.8934179851        0.7437476635
 H         0.5772140234        0.4666860654        1.5215301751
 H         4.9742069358       -2.6687238667       -0.9633399609
 H         3.7094781906       -3.2471141059        0.0378982234
 H         0.0028547822       -0.8138860118       -2.3216996515
 H         0.5486811640       -1.7732310058       -3.7684042021
 H        -1.0418174145       -1.9746911253       -3.1679773399
 H         3.1468661653       -4.3381306544       -3.7027034523
 H         2.4464610882       -2.6728757901       -4.3830286632
 H         1.5123743065       -4.1738417285       -4.1533331716
 H         3.3467936225       -4.9355309507       -1.2444543108
 H         1.9397436089       -4.4817463453       -0.3938972471
 H         1.8351828069       -5.3780218342       -1.9327900619
 Na       -2.4412777596       -3.7738807424       -0.9466936882
