155

 C        -5.0189450005       -6.5251652900       -3.1408628572
 C        -3.7587260109       -6.0206670799       -2.4767653982
 C        -2.8660438049       -6.9781299525       -1.6275623138
 C        -2.6014079460       -6.4524981442       -0.1536355462
 C        -2.7015210890       -7.4584897049        1.0164542147
 C        -3.3984653260       -8.4102298932       -1.6595033271
 C        -1.4560494729       -6.9717486421       -2.2469979496
 O        -3.4947908989       -4.8394154460       -2.6328442616
 O        -2.1449320049       -5.3319716400        0.0143021737
 C        -3.6158329852       -6.8809517052        2.0374133492
 C        -5.0261254724       -6.4880940419        1.5677869328
 C        -6.0396948427       -6.0080173712        2.7179143078
 C        -5.5609319198       -4.5038030881        2.9343525007
 C        -6.3536410365       -3.3340581740        2.2841812467
 O        -5.4086163172       -6.6475119959        0.4337988018
 O        -4.5331708770       -4.2802675501        3.5362510133
 C        -7.3997184112       -6.1627203847        2.1448410031
 C        -5.8412139974       -6.7416291243        4.0558153487
 C        -5.4851176916       -2.1123130522        2.3258770745
 C        -4.1876512686       -2.2307315870        1.4739743773
 C        -2.9881029608       -1.2497490692        1.6990936531
 C        -2.8440240306       -0.5473287275        0.3226417118
 C        -2.9709512536        1.0022760228        0.3152529749
 C        -3.2085671587       -0.2770734861        2.8684653846
 C        -1.7491252822       -2.0755958920        1.9148618619
 O        -4.0821179230       -3.1255604088        0.6514534885
 O        -2.4552230479       -1.1277867288       -0.6941459750
 C        -2.9098134670        1.6228802990       -1.0711555268
 C        -1.5109631719        2.1439650160       -1.5706655867
 C        -1.4050922374        2.9204505300       -2.9323220218
 C        -1.0804618047        4.4374544043       -2.5983449519
 C         0.3655055905        4.8561811271       -2.2676288423
 O        -0.4647316052        1.9922851523       -0.9188509002
 O        -1.9974545474        5.2073799960       -2.5311580902
 C        -0.2650914879        2.2161051397       -3.7959037323
 C        -2.7726208212        2.9301112987       -3.7532352524
 C         0.4145741134        6.3010120396       -1.7261347872
 C         1.8117351831        6.9308155330       -1.7311391108
 C         2.0478013682        8.2093587538       -0.9725667650
 C         2.3740213261        7.9721848226        0.5046632024
 C         3.3520286385        8.8534020250        1.3644918315
 C         2.9742268397        9.2511920472       -1.7070040947
 C         0.6617242407        8.9457372093       -0.6298530233
 O         2.6752830890        6.4554042389       -2.4826855390
 O         1.6974646738        7.1657613944        1.0941099051
 C         4.1513772837        8.0091854976        2.3055955330
 C         4.9083952147        6.9288686692        1.5046790802
 C         5.5678723167        5.6524214901        2.1367070254
 C         4.5161332497        4.4344982868        2.0777715671
 C         4.5090243234        3.4372529263        0.8585353593
 O         4.9024887687        7.0230002518        0.2689974633
 O         3.7586127458        4.2936864206        2.9752928599
 C         6.9040166815        5.3259726449        1.3441956154
 C         5.8786915348        5.7940975378        3.6389572129
 C         3.3911557760        2.4764577843        0.6865138712
 C         3.7162247506        1.1546326746        1.5500854944
 C         2.5252305954        0.1845677548        2.0270748650
 C         2.4744070790       -1.0085862830        1.0057794184
 C         3.9391094849       -1.5034746728        0.5762623208
 C         2.9522703768       -0.3239175169        3.4254162797
 C         1.1503436182        0.8861979348        2.1357448093
 O         4.8812713364        1.0067726504        1.7702265592
 O         1.4480713418       -1.4475972055        0.4988780565
 C         3.8724358644       -2.6596421074       -0.3961179312
 C         3.3514945951       -2.4080817126       -1.7465286295
 C         2.4178944279       -3.5156267957       -2.3687745040
 C         0.8891446500       -3.1913194366       -2.2827009235
 C         0.3345238775       -1.8699535827       -2.7236976123
 O         3.6666592755       -1.3797348466       -2.3867494336
 O         0.2218022672       -4.0716892794       -1.7091763779
 C         2.7237528945       -3.4563440073       -3.9162950559
 C         2.7336540109       -4.9042283039       -1.7974160175
 H        -5.8248099482       -6.4545200224       -2.3763331720
 H        -5.2763156331       -5.8052418726       -3.9539130922
 H        -4.9721117764       -7.5505939862       -3.4347629259
 H        -2.9676698855       -8.4483437330        0.7055452326
 H        -1.6978099351       -7.6318132835        1.4883102739
 H        -4.3942893768       -8.4580210596       -1.1196227381
 H        -2.8366989691       -9.2288005041       -1.2372044770
 H        -3.6056513515       -8.7923532479       -2.7145370360
 H        -0.8189558080       -7.5541631208       -1.6217354194
 H        -1.5775624597       -7.4953646593       -3.1701484513
 H        -1.1404693706       -5.9867592827       -2.3752372466
 H        -3.8579866180       -7.5384313125        2.9071815281
 H        -3.1146615700       -6.0286483265        2.6406068025
 H        -6.4844266655       -3.6341816433        1.2033386740
 H        -7.2940948523       -3.3040345699        2.7967586174
 H        -8.0922013494       -5.7181310967        2.8917541981
 H        -7.8247712475       -7.1625192443        2.2047365934
 H        -7.4247467033       -5.5729245326        1.2160260915
 H        -6.8329829547       -6.7916359421        4.5105472380
 H        -5.5616675190       -7.7346284569        3.8470414298
 H        -4.9807771484       -6.2061569503        4.5073157300
 H        -5.3035766441       -1.9427483063        3.3919037435
 H        -6.0565662112       -1.1850896351        1.9470791443
 H        -3.9878651815        1.3484312181        0.6148131953
 H        -2.4597332059        1.5912357226        1.0663722995
 H        -2.5254292864        0.5802069533        3.0258127597
 H        -3.1850833182       -0.9933798934        3.7709702230
 H        -4.2272829534        0.0776599642        2.8045154600
 H        -1.6252041843       -2.4646807679        2.9276925437
 H        -1.7065242184       -2.8885249745        1.2949164787
 H        -0.8797452127       -1.4771680115        1.7256663731
 H        -3.2584166340        0.8003462976       -1.6577113583
 H        -3.5314996189        2.5178735969       -1.1048471937
 H         0.7803159006        4.1652273859       -1.5691070477
 H         0.8347833775        4.7682286352       -3.2224286219
 H         0.6050150411        2.1189824292       -3.1914998339
 H        -0.0764264657        2.5627669992       -4.7497681711
 H        -0.7184055823        1.2012020273       -3.8990340075
 H        -3.0333508501        1.9750229089       -4.0854137026
 H        -3.5634842850        3.3847739188       -3.0901877533
 H        -2.6266866561        3.5642052968       -4.6651476051
 H        -0.1191561121        6.4147815950       -0.7360894867
 H        -0.2114130079        6.9244084118       -2.3932691563
 H         4.1253104159        9.2558598721        0.6143279811
 H         2.8025424961        9.6922156621        1.7895454551
 H         2.6602645954        9.2519457520       -2.7337809356
 H         4.0845855195        8.9151385373       -1.6341096768
 H         3.0232020501       10.2355099979       -1.1873818775
 H        -0.0282597081        8.3031094210       -0.1756262464
 H         0.8264217892        9.8456163376        0.0255720785
 H         0.1530259693        9.3300373995       -1.5554225513
 H         4.8997975030        8.5864917757        2.7723517229
 H         3.4974653961        7.5556646425        3.1127246790
 H         4.4317732115        4.1318927533        0.0301910150
 H         5.3663705519        2.7703036905        0.6677064345
 H         7.3950735809        4.5367362146        1.9324927553
 H         7.5252741183        6.2190123678        1.3207999579
 H         6.7668562834        5.0108621825        0.3458800790
 H         6.4961518481        6.6520873099        3.8076886484
 H         5.0611686938        6.1236120678        4.2443758107
 H         6.4067858069        4.9237381345        4.0563068227
 H         3.3271815561        1.9887204912       -0.4180262640
 H         2.4105440611        2.9130110193        0.9205028843
 H         4.2405741067       -0.6244927105       -0.0028539412
 H         4.6370373397       -1.7246737727        1.3498151567
 H         3.4142949692        0.4806966338        3.8988165195
 H         3.7080524056       -1.1311522148        3.4584344161
 H         2.1758490111       -0.6742742664        4.1021817331
 H         1.2074792621        1.6783590148        2.8966197098
 H         0.7601400526        1.1900936463        1.1874975447
 H         0.5476227690        0.1135326808        2.6166401013
 H         4.8983424421       -3.1013892364       -0.5053230407
 H         3.1969683360       -3.4611122604       -0.0323933681
 H         0.6323846738       -1.1192157327       -1.9601753928
 H         0.6728103344       -1.4604770927       -3.6636345463
 H        -0.6951322943       -2.0231886306       -2.6781747890
 H         3.6845402718       -3.7166722469       -4.1238848661
 H         2.5845742322       -2.4036444402       -4.2258178103
 H         2.0151240471       -4.2582104734       -4.3218329815
 H         3.7715481106       -5.2195674942       -2.0058013453
 H         2.3495173842       -5.1985210724       -0.8494733938
 H         2.0865929690       -5.5835902086       -2.3587487792
 Na       -2.1464863285       -3.4580355200       -1.3372067547
