155

 C        -4.9630171040       -6.0570689646       -2.8649230123
 C        -3.5812010028       -5.6817550953       -2.4125251484
 C        -2.5882610104       -6.7846470708       -1.8180471435
 C        -2.3751096115       -6.5369710005       -0.3036707584
 C        -2.6219088815       -7.5729817313        0.7244736276
 C        -3.1628429015       -8.1457295429       -2.1581004423
 C        -1.2037882869       -6.6953076073       -2.4594571830
 O        -3.2096457940       -4.5181726273       -2.5070849172
 O        -1.9328716196       -5.4533208909        0.0428004401
 C        -3.3344595291       -7.0665787011        2.0245533127
 C        -4.8649054030       -6.8325806880        1.7520433605
 C        -5.7625526197       -6.1838053117        2.8525690638
 C        -5.4162938703       -4.6962153172        2.8822882167
 C        -6.1306902892       -3.6446196244        1.8941940850
 O        -5.2944548347       -7.0386538182        0.6713099044
 O        -4.6347119497       -4.2312482701        3.7032529236
 C        -7.2336480528       -6.3440833208        2.5613119054
 C        -5.5143698260       -6.7040782696        4.2794222464
 C        -5.3739002902       -2.2686552812        1.8941053240
 C        -4.0845918983       -2.1996977105        1.1648323013
 C        -3.0676930301       -1.0596495731        1.4897968737
 C        -2.7912911426       -0.2523299188        0.0873053373
 C        -2.7900555434        1.2174173282        0.1631288344
 C        -3.5679119466       -0.1863558910        2.6587961951
 C        -1.8086552510       -1.9075867127        1.9204702927
 O        -3.8179931153       -2.9834706099        0.2554883683
 O        -2.4181777781       -0.8454438705       -0.9001263231
 C        -2.7066566230        1.8369805011       -1.2301220562
 C        -1.2729648649        2.1370497221       -1.7294028116
 C        -1.1342301513        2.8189644243       -3.1752184887
 C        -0.9451793144        4.3414555344       -2.9184562989
 C         0.3068424111        4.6976075774       -2.0290298586
 O        -0.3364976661        1.9633567480       -1.0698923263
 O        -1.7365189684        5.1709252191       -3.2562823309
 C         0.2251825289        2.3107452246       -3.8569456489
 C        -2.4507998417        2.6541405106       -4.0334174340
 C         0.2374885690        6.1417944849       -1.5596537967
 C         1.6452252833        6.6744750774       -1.4320978319
 C         1.9475850308        8.0948235683       -0.9362965015
 C         1.8491323783        8.1452122590        0.6276808939
 C         2.9325153918        8.9176630763        1.3337678816
 C         3.2006941556        8.5689346983       -1.6424153774
 C         0.7520324585        9.0710333320       -1.2957007103
 O         2.6241669755        5.9704874445       -1.7151078409
 O         0.8202064033        7.7153825832        1.1670301140
 C         3.7527421615        7.9656769710        2.2745025957
 C         4.5172512589        6.8302508216        1.5966078335
 C         5.2753211359        5.6763409945        2.3869558994
 C         4.2583608338        4.4066258115        2.4644012860
 C         3.9920505252        3.8220621951        1.1264645141
 O         4.4518392515        6.6511669298        0.3786766188
 O         3.6599189865        4.0750793634        3.4800225749
 C         6.5186258973        5.1792442099        1.5640203471
 C         5.6148150494        6.2788568108        3.7848094794
 C         2.9820885460        2.6430878536        1.1620628060
 C         3.6634782553        1.3472385905        1.5741643915
 C         2.5645974461        0.0944625643        2.0681521937
 C         2.5130673278       -0.8358155242        0.9226363287
 C         3.6350898833       -1.9642937579        0.8837251895
 C         3.2579255688       -0.4369534882        3.3083031421
 C         1.1419110019        0.6094459592        2.3621705424
 O         4.8444516407        1.1308147298        1.6359474864
 O         1.5853985513       -0.9951886450        0.1733544272
 C         3.2257642348       -3.1184269433       -0.0533328632
 C         3.3146440483       -2.8050601264       -1.5437821249
 C         2.3119559094       -3.5243000841       -2.6531369690
 C         0.9138854524       -2.9693922601       -2.2052852739
 C         0.4989837400       -1.5271534847       -2.5519088210
 O         3.9929058818       -1.8996044855       -1.9303851395
 O         0.1897294603       -3.7529038651       -1.6004092778
 C         2.7695811554       -3.2156319801       -4.1684940676
 C         2.2952134118       -5.0903841848       -2.3758868183
 H        -5.4265002050       -6.8725785993       -2.2744646156
 H        -5.6241963723       -5.1380974773       -2.7891230863
 H        -4.8722665859       -6.3231678448       -3.8935844935
 H        -3.2321995245       -8.3818245979        0.2534567737
 H        -1.7089165167       -8.0002163773        1.0188441445
 H        -4.1109874894       -8.4273908012       -1.6683387746
 H        -2.6003839970       -9.0564943705       -1.8274342110
 H        -3.2000563369       -8.4068794421       -3.2258142218
 H        -0.5766409741       -7.4230082252       -1.9210229337
 H        -1.2731768071       -6.8742108072       -3.5036180272
 H        -0.8875790947       -5.7345971710       -2.2986032685
 H        -3.3036950890       -7.8846822565        2.7434789637
 H        -2.8617313659       -6.2870802676        2.4700301769
 H        -6.0441634782       -4.0635794396        0.9538627818
 H        -7.2176253888       -3.5664194983        2.0934378868
 H        -7.3129679714       -7.3911230686        2.2584257053
 H        -7.6944465442       -5.5965609703        1.8963252650
 H        -7.8677994072       -6.0883501120        3.4491434193
 H        -6.0801543853       -5.9339586069        4.9203606545
 H        -5.8689407822       -7.7436814851        4.3585829820
 H        -4.4537041203       -6.4933220441        4.5087898394
 H        -5.2425822363       -2.0034504095        2.9223252015
 H        -6.1143588109       -1.5911235617        1.5622159266
 H        -3.4749142835        1.8990294425        0.6897342196
 H        -1.8059414780        1.4506962234        0.6719572890
 H        -2.7097113693        0.4431863750        2.9127405420
 H        -3.9699502469       -0.6933478176        3.5729673760
 H        -4.4293534903        0.4107548207        2.2978849292
 H        -2.1263515759       -2.6917306032        2.5731378438
 H        -1.3404029310       -2.3584316214        1.0528007205
 H        -1.0357415056       -1.4159277147        2.4517728737
 H        -3.1913327750        1.1203193134       -1.9366362301
 H        -3.2032426936        2.8041380686       -1.3247033855
 H         0.4819207674        4.0522306144       -1.1138497559
 H         1.3010230404        4.6522856118       -2.5455613245
 H         0.9196948888        1.9368050836       -3.1222621989
 H         0.6648466021        3.1836402904       -4.3558492942
 H        -0.0357367021        1.5755420649       -4.5504261884
 H        -2.8542005714        1.6251229041       -3.8703702559
 H        -3.2637274634        3.3474035265       -3.9789136175
 H        -2.0760573789        2.6636494303       -5.1228805163
 H        -0.3278022610        6.3298381964       -0.5880510936
 H        -0.0986659257        6.8003485682       -2.4202212624
 H         3.5264472137        9.3816618594        0.6069060098
 H         2.5987081250        9.6923646213        1.9808647016
 H         3.0851074278        8.2560355960       -2.7379084778
 H         4.1284051884        7.9717104555       -1.3020797650
 H         3.3336355934        9.6147221811       -1.5522901284
 H        -0.2438332593        8.6342290632       -0.8947203730
 H         0.7514775284       10.0616771343       -0.8879070538
 H         0.5971904325        9.1246201241       -2.3656887419
 H         4.4755453378        8.6956816246        2.7974046565
 H         3.2186688777        7.5838082788        3.0899918716
 H         3.6056093248        4.5182263637        0.2938738110
 H         4.9131462621        3.4179292136        0.7084199650
 H         6.9663136855        4.3674612106        1.9536402366
 H         7.2926662661        5.9664452934        1.6006124783
 H         6.1384717881        5.0413630018        0.5723911073
 H         6.2808205512        7.0842497411        3.7876331021
 H         4.7316986531        6.5228062639        4.3029446774
 H         5.9870617208        5.5752395371        4.5255160740
 H         2.5980352187        2.4378693029        0.1921284526
 H         2.2589500960        2.7334947970        1.9629923554
 H         4.5955965709       -1.5970885580        0.7055211361
 H         3.6770563371       -2.4020218036        1.8625195766
 H         3.2628643244        0.1934860116        4.1341690630
 H         4.2620037200       -0.7558795163        3.1267868246
 H         2.7837568330       -1.2873873834        3.7430313956
 H         1.2083113852        0.9051726020        3.3791449047
 H         0.7973434329        1.5154541397        1.8029212227
 H         0.4114673891       -0.0862588052        2.0708330046
 H         3.9528180125       -3.9628929774        0.1110646725
 H         2.2386022187       -3.5681010061        0.1969564421
 H         0.7707525068       -0.9095376331       -1.7628531567
 H         1.1277144859       -1.1618530416       -3.3377129905
 H        -0.5757833369       -1.5296540641       -2.7089861505
 H         3.3903434755       -4.0718335098       -4.3807760421
 H         3.3764730776       -2.3226186363       -4.1721445635
 H         1.9366106147       -2.9102810043       -4.7416064285
 H         3.1984958773       -5.6779815176       -2.5476182112
 H         2.0664746145       -5.2740562848       -1.2467997570
 H         1.5189028012       -5.5742468371       -2.9570029523
 Na       -1.9722193097       -3.2824833165       -1.0696084566
