155

 C        -5.0431957329       -6.0138459992       -2.5469880748
 C        -3.6372890219       -5.5049691971       -2.2960083577
 C        -2.5868928592       -6.5955347926       -1.8463998877
 C        -2.3800680321       -6.4444846377       -0.2909117987
 C        -2.6113939317       -7.6112997497        0.5605628103
 C        -2.8897578022       -8.0346100101       -2.3044667101
 C        -1.1473258947       -6.1989085318       -2.3969229890
 O        -3.3251304585       -4.3431482076       -2.4238003108
 O        -2.2178225096       -5.3790248606        0.2575921170
 C        -3.3754355253       -7.2901152209        1.8792945911
 C        -4.8367616849       -6.8867098000        1.6396482043
 C        -5.5618162788       -6.2999167658        2.8028523020
 C        -5.2898076252       -4.7355895908        2.7320307010
 C        -5.9679184503       -3.7900632091        1.7377292027
 O        -5.2469774219       -6.8246342047        0.5159671300
 O        -4.4447862274       -4.1946315628        3.4419742418
 C        -7.1551299837       -6.4494609229        2.8165396042
 C        -4.9674622632       -6.7351760241        4.2572285912
 C        -5.4386468881       -2.4420306828        1.8493704195
 C        -4.2228328284       -2.1891768625        1.0099493602
 C        -3.0899316887       -1.0921959999        1.3351170134
 C        -2.7012104687       -0.2751040439        0.0416094866
 C        -3.1482049683        1.1321787535       -0.1371210017
 C        -3.6308181851       -0.2030880171        2.4930294790
 C        -1.9123587803       -1.9419610014        1.7930589780
 O        -3.9573025281       -3.0070957120        0.1058656435
 O        -2.1447838435       -0.9489486655       -0.7878597250
 C        -2.8869627972        1.8077192745       -1.4662804691
 C        -1.2562269674        1.8884061803       -2.0243135626
 C        -0.9971588159        2.6008968675       -3.2947113165
 C        -0.9165651587        4.1129428861       -2.9379959871
 C         0.1117162507        4.7392747387       -1.8706763680
 O        -0.4481285147        1.4321118871       -1.2943342398
 O        -1.8381490798        4.8108281221       -3.4296511123
 C         0.3723291574        1.9954747049       -3.8431511658
 C        -2.0465546977        2.3157168566       -4.3878218453
 C         0.2942261483        6.2553937786       -1.9106427568
 C         1.7804661521        6.7284351274       -1.4298275854
 C         1.8672217460        8.3652760443       -1.0992849318
 C         1.7838382561        8.3373223275        0.4622350249
 C         2.9403577178        8.8542405262        1.4611418428
 C         3.2512596005        8.8280311284       -1.6051246088
 C         0.6940285787        9.1893093808       -1.6732992759
 O         2.6842551868        5.9709379333       -1.2322145460
 O         0.7227749751        7.9941890857        0.9573500012
 C         3.3293749598        7.7679825338        2.4472214895
 C         4.3259465328        6.8286946160        1.8702717092
 C         5.0706959082        5.7331256168        2.6697772627
 C         4.1611235524        4.5143123562        2.5307662861
 C         3.8397143210        3.7625580726        1.1885291010
 O         4.5215489992        6.9013919935        0.6771907438
 O         3.5992883628        4.0617378299        3.4793164147
 C         6.4174847144        5.4446271363        1.9294655260
 C         5.3592206775        6.0810696101        4.0956864395
 C         2.8177538517        2.5919541432        1.4663597626
 C         3.4981211956        1.1517759268        1.6274835359
 C         2.6655871752        0.0784097490        2.3457729616
 C         2.5430188847       -0.9250767456        1.1972097884
 C         3.5771274189       -2.1675749635        1.0977604844
 C         3.4903572758       -0.3488705063        3.5916010070
 C         1.2410329581        0.3995356117        2.8835737568
 O         4.5532939695        0.8660450322        1.1418701680
 O         1.7108220139       -0.7873013495        0.3482755096
 C         3.0859437382       -3.0820993108       -0.0251751304
 C         3.2980686829       -2.7039905847       -1.4558885751
 C         2.4257265219       -3.3759843695       -2.6597366103
 C         1.0384714937       -2.7340506330       -2.3745115776
 C         0.4239538352       -1.4632563694       -3.0093712992
 O         4.3004471016       -2.0191448728       -1.7884676076
 O         0.3204062784       -3.3688471716       -1.6140549930
 C         2.9802638833       -2.9528734086       -4.0341440913
 C         2.3140428024       -4.8894392882       -2.5890664516
 H        -5.4574124420       -6.2814436437       -1.5459813883
 H        -5.6935946800       -5.2703229703       -3.0984726005
 H        -4.9914023477       -6.8925818509       -3.1123059740
 H        -3.2144020313       -8.3592483885       -0.0350255880
 H        -1.6510945922       -8.0126152940        0.8251221786
 H        -3.9545844864       -8.3350409002       -2.2867832697
 H        -2.3810499706       -8.7927223327       -1.7294449051
 H        -2.8942543831       -8.2192675159       -3.3661443474
 H        -0.4976138799       -7.0631336785       -2.2511098579
 H        -1.2417705838       -6.0931010747       -3.4413154850
 H        -0.8023328691       -5.3268366736       -1.9363253822
 H        -3.2913372081       -8.2483808747        2.4492062962
 H        -2.9054935081       -6.4843022330        2.3761287706
 H        -5.5935304788       -4.2140785080        0.8447830456
 H        -7.0450302613       -3.9857432565        1.8064496391
 H        -7.4214733064       -7.4356745354        2.4816953141
 H        -7.7586560808       -5.6573220426        2.3024873747
 H        -7.5036213716       -6.5636430257        3.8463845995
 H        -5.4550351075       -6.1434781127        5.0574205396
 H        -5.1294458592       -7.7521982870        4.3577688678
 H        -3.8837621410       -6.4549180863        4.3686947626
 H        -5.2487662959       -2.3284178813        2.8776537537
 H        -6.3190078050       -1.7933672036        1.6311113902
 H        -4.2803063108        1.2064596204       -0.0789445893
 H        -2.7804097518        1.8527566396        0.5558568908
 H        -2.9320819362        0.5226094312        2.8821213853
 H        -3.9142464406       -0.8750228409        3.3830784701
 H        -4.4319901407        0.3870568823        2.0946147956
 H        -2.1859115919       -2.3925837869        2.7632479783
 H        -1.7057650584       -2.7355444959        1.1602918511
 H        -0.9632003808       -1.4558051800        1.9097066053
 H        -3.5034180973        1.3001567750       -2.2076560393
 H        -3.2155607658        2.8310095492       -1.5178130607
 H        -0.1949189004        4.2619547021       -0.9481083746
 H         1.0308797182        4.2386118525       -2.0284089289
 H         1.0984419170        2.1722013018       -3.0696031470
 H         0.6743597539        2.2751399765       -4.8392446558
 H         0.2190240159        0.9360050733       -3.7281888758
 H        -1.9699909923        1.4689375455       -5.0073613046
 H        -3.0324006226        2.2754754655       -3.9386962066
 H        -2.1938437800        3.2729253974       -5.0044280558
 H        -0.5380003091        6.6921957441       -1.2914371936
 H         0.1461016211        6.4608132156       -2.9862553167
 H         3.8566351491        9.2750043974        1.0241371902
 H         2.4150749559        9.7016378767        1.8669779662
 H         3.3737774158        8.7700810911       -2.6940220546
 H         4.1337748863        8.2676867315       -1.1085229276
 H         3.2556661943        9.9039085724       -1.5729944578
 H        -0.2386377601        8.8086042805       -1.2353561446
 H         0.6466843579       10.2506037645       -1.4582847844
 H         0.5248690147        9.1096487178       -2.7524715063
 H         3.8739788007        8.1588298566        3.3828374315
 H         2.5234473459        7.2338439874        2.8547893093
 H         3.4114418280        4.5189197358        0.4536467712
 H         4.7823474086        3.4382277680        0.7358831794
 H         6.8233465127        4.6132393372        2.4445913890
 H         7.0516600511        6.3645108774        2.0936972618
 H         6.2766912282        5.2561664911        0.8855937632
 H         5.9498289339        6.9633569160        4.2810071475
 H         4.4860247868        6.0446796307        4.7750389462
 H         6.1135033351        5.3201688227        4.5254388201
 H         2.1454463742        2.3261800100        0.5682317555
 H         2.3676167082        2.9243775789        2.3781305807
 H         4.5265825730       -1.7802670999        0.8239785178
 H         3.7867945160       -2.7178899284        2.0167128309
 H         3.4362450521        0.3906336521        4.3308621383
 H         4.6083637077       -0.4103811804        3.4226408851
 H         3.2048436495       -1.2762385818        4.1202255708
 H         1.2312673079        1.4201915812        3.2766463864
 H         0.4685623518        0.4192818415        2.0636697530
 H         0.9360292612       -0.2964353988        3.6188492944
 H         3.6942503238       -4.0286874607        0.1370440691
 H         2.0331734164       -3.4455234241        0.0992777427
 H         0.9019469066       -0.5940210087       -2.5115376892
 H         0.6952027906       -1.4675551368       -4.1104497605
 H        -0.6578928999       -1.4800803485       -2.8739360372
 H         3.9332700543       -3.0187726995       -3.7817240126
 H         2.5857178582       -1.9533844724       -4.3328422742
 H         2.8280119863       -3.7644705924       -4.8038382644
 H         3.1943210926       -5.3764507346       -2.1658807544
 H         1.6156997776       -5.1771782422       -1.7729700363
 H         2.1764474982       -5.2104255310       -3.5787741813
 Na       -1.9333102318       -3.3316137087       -0.9396403109
