155

 C        -5.1527066346       -6.0187394346       -2.4872179865
 C        -3.7017225914       -5.4791921474       -2.3655399891
 C        -2.5333358711       -6.5683218115       -2.0116903464
 C        -2.4979358845       -6.4500706727       -0.4265720821
 C        -2.7028907458       -7.6666246865        0.5105202737
 C        -2.7679042197       -7.9628219748       -2.5433372061
 C        -1.1471909098       -6.0483537106       -2.4463833687
 O        -3.3896071795       -4.2918806584       -2.4826931099
 O        -2.4318096779       -5.3622440433        0.1540671231
 C        -3.2714451662       -7.2504814316        1.8761244849
 C        -4.6736598124       -6.7892083186        1.7737315510
 C        -5.4628175891       -6.2723294393        2.9214485951
 C        -5.1503981489       -4.7034014886        2.7833580788
 C        -6.0979085574       -3.8951398933        1.8887632765
 O        -5.1884837902       -6.6735523847        0.6583817503
 O        -4.1732047839       -4.2296594873        3.3004381639
 C        -7.0217261158       -6.7089355683        2.7840052403
 C        -5.0237424169       -6.7179615834        4.2896728848
 C        -5.6006705388       -2.3060732134        1.8142926880
 C        -4.2544852021       -2.2408315016        0.9944331511
 C        -3.2059081883       -1.1169199336        1.3742941945
 C        -2.8348116965       -0.4390376594       -0.0376830360
 C        -3.2388153076        0.9901431581       -0.2468366227
 C        -3.6326687450       -0.1582556129        2.4472264436
 C        -2.0712906819       -1.9485571109        2.0653277814
 O        -4.0548074777       -2.9102414145        0.0327980856
 O        -2.1792285548       -0.9857444839       -0.9074056911
 C        -2.8651753639        1.5398939440       -1.6660912450
 C        -1.4004195471        1.7008548847       -1.9504921489
 C        -0.8688845365        2.6670688602       -3.2709471549
 C        -0.8765597832        4.1558813307       -2.9297119583
 C         0.3459158829        4.6991876810       -2.1276098934
 O        -0.5277265117        1.1476299279       -1.2840286440
 O        -1.6732457845        4.9053697156       -3.3205155607
 C         0.5982665800        2.2427119147       -3.6988435752
 C        -1.7740099349        2.3998278061       -4.5104697712
 C         0.2738800791        6.2077804809       -2.0695839963
 C         1.5161968870        6.7271400146       -1.4309462244
 C         1.8158521929        8.2970614598       -1.0866570828
 C         1.5645360032        8.3086683296        0.5036813471
 C         2.6917961363        8.8706977068        1.3280421320
 C         3.2381818845        8.6275948685       -1.6983226263
 C         0.7994842554        9.3112066573       -1.6945759453
 O         2.4099080374        5.9746551714       -1.0194276738
 O         0.4797015649        7.8760182915        0.9014083435
 C         3.1926887196        7.7387598236        2.2703136547
 C         4.3112049019        6.8349189989        1.7696955239
 C         4.9833425282        5.6750012681        2.7242942471
 C         4.0449368145        4.3561072783        2.7681920705
 C         3.8395868561        3.6845772225        1.4666767067
 O         4.7412621755        7.0098802630        0.6490399145
 O         3.4497898892        3.9676105683        3.7851057808
 C         6.3458178022        5.2944199453        2.1232872237
 C         5.0244330636        6.2464538576        4.1089807260
 C         2.8222931669        2.5531776278        1.2987939589
 C         3.4794792496        1.2851822140        1.5894805347
 C         2.8174245482        0.0823616642        2.3532154838
 C         2.4841240735       -1.0526696870        1.2640702770
 C         3.5398675375       -2.1113235073        1.0068281194
 C         3.7255613751       -0.4796113140        3.4587996139
 C         1.4707838210        0.4819678113        2.9072018088
 O         4.5724140407        1.0157629954        1.0916686409
 O         1.4583786590       -0.9226215231        0.5955653825
 C         3.0050226683       -3.2030149151        0.0327714805
 C         3.3667578827       -2.6878648393       -1.3744824923
 C         2.5549807403       -3.1790661711       -2.6184211842
 C         1.1268967101       -2.7632318422       -2.3561326804
 C         0.5774271640       -1.5272196479       -3.0467224580
 O         4.3235455346       -2.0187856566       -1.5426698849
 O         0.4672514327       -3.3391254689       -1.4761877264
 C         3.2011170427       -2.6091705757       -3.9096909750
 C         2.5922366376       -4.7664337819       -2.6419867753
 H        -5.5697530643       -6.1303229503       -1.4958576504
 H        -5.6807538598       -5.2950616877       -3.0717742566
 H        -5.2218026804       -6.9944040609       -3.0516092940
 H        -3.3940746764       -8.3320367647        0.0671358740
 H        -1.7019122620       -8.1059549746        0.5817768081
 H        -3.5494069779       -8.5902333217       -2.2063952443
 H        -1.8181165403       -8.5152130386       -2.4619776779
 H        -3.1647328165       -7.9361461773       -3.5327001930
 H        -0.4330211685       -6.8779495732       -2.4716465960
 H        -1.1385394457       -5.7666387971       -3.5122457885
 H        -0.8590983082       -5.2958726725       -1.7125507733
 H        -3.2851408466       -8.1848488158        2.4313795065
 H        -2.6779011535       -6.4708230567        2.3435442881
 H        -5.9371164110       -4.4844983647        0.9452165006
 H        -7.0627220361       -4.1773095030        2.2781571246
 H        -7.2678579578       -7.6926866194        3.3138232706
 H        -7.1594478285       -6.8691241369        1.6961022771
 H        -7.8276436057       -6.0865817196        3.2313971830
 H        -5.2749065995       -5.9879793909        5.0898453876
 H        -5.4651373284       -7.8050394515        4.4954522948
 H        -3.9346003854       -6.7932888283        4.2296966816
 H        -5.7640927069       -1.8311566584        2.8074296208
 H        -6.2999758277       -1.8906308575        1.1665846241
 H        -4.2890255299        1.1586134179       -0.0688327021
 H        -2.6563094698        1.7423618367        0.3815585184
 H        -2.8354472927        0.6254936734        2.4628172011
 H        -3.5846023913       -0.6405386097        3.3561791379
 H        -4.5007104772        0.4985200480        2.2263357499
 H        -2.4075477035       -2.4975783251        2.9185137316
 H        -1.5648667955       -2.6754437204        1.3319027348
 H        -1.2587264570       -1.2852635846        2.3739281118
 H        -3.1661761052        0.9319328881       -2.5420981349
 H        -3.2497237139        2.5238245530       -1.9993798463
 H         0.4307908072        4.2045865480       -1.1239842811
 H         1.2889702005        4.2324848077       -2.5775313513
 H         1.2123608639        2.0338063089       -2.8259669981
 H         0.8755109797        3.2210952192       -4.1398956969
 H         0.7585806797        1.5305948091       -4.4712140751
 H        -2.2157361583        1.3392130914       -4.4756036688
 H        -2.6176894226        3.0708099387       -4.5553014267
 H        -1.3285897332        2.5129469152       -5.4603785644
 H        -0.6256782740        6.3988827975       -1.4964384735
 H         0.1552755956        6.6490041782       -3.0801876333
 H         3.3805160327        9.3738527021        0.7055095946
 H         2.2755059470        9.6594254523        2.0015136471
 H         3.1987078880        8.5106752309       -2.7973284456
 H         3.9213397629        7.9188035871       -1.3119723728
 H         3.5386308276        9.6598836864       -1.6468184772
 H        -0.3055271645        9.1929769413       -1.5380791928
 H         1.0265188022       10.3286043565       -1.3507715250
 H         0.8812273788        9.4413951518       -2.7666357985
 H         3.4190462329        8.1370352528        3.2141038189
 H         2.3216371191        7.0180527215        2.4713969576
 H         3.6838556545        4.4272874437        0.7007054130
 H         4.9067310891        3.4046411434        1.2920724112
 H         6.5764059370        4.3530614946        2.5778468714
 H         7.0794186965        6.0485661965        2.1524732685
 H         6.1236280922        5.0969982423        1.0577550298
 H         5.5150484693        7.1958459757        4.3003746053
 H         4.0025864304        6.3607045595        4.3926095562
 H         5.4787901393        5.5918830737        4.7666401488
 H         2.6272054497        2.5662497877        0.2992666186
 H         1.9378987838        2.7359005584        1.9535618970
 H         4.4917363277       -1.6268680384        0.7211583722
 H         3.7710149044       -2.5347892681        1.9709260081
 H         3.3330466678       -0.5107906345        4.4979839295
 H         4.5637612000        0.1187368240        3.5697592041
 H         4.1148796766       -1.4306044063        3.2121086440
 H         1.4447839434        0.8767516232        3.9232236424
 H         1.1008459189        1.2839648619        2.3246205592
 H         0.7222093968       -0.3722433935        2.9143265386
 H         3.4827969100       -4.1506018717        0.2414730216
 H         1.9433819334       -3.3649272490        0.1768692312
 H         1.1374448794       -0.6785680556       -2.7591666437
 H         0.4685286015       -1.6684754463       -4.0847976321
 H        -0.4685533065       -1.4020076353       -2.7390538275
 H         4.3674887148       -2.6617725986       -3.8288661657
 H         2.7887895907       -1.6454374830       -3.9596162630
 H         2.9223785413       -3.2668734396       -4.6769412551
 H         3.6424847229       -5.0415882999       -2.4622582033
 H         2.1135716219       -5.1908967485       -1.7763117240
 H         2.2800050257       -5.1567506039       -3.6471286669
 Na       -1.8619396576       -3.2596149127       -1.0511292996
