155

 C        -5.1451966120       -5.9937695913       -2.6488262845
 C        -3.7283834216       -5.4742921736       -2.4866274451
 C        -2.5162433189       -6.4582624192       -2.0722913077
 C        -2.4766966899       -6.4298483363       -0.4736696549
 C        -2.6873429476       -7.6858333817        0.4276620692
 C        -2.8249609794       -7.8709982379       -2.6143997541
 C        -1.2009850751       -5.9225725226       -2.6191284972
 O        -3.3988120470       -4.3335443331       -2.6854986993
 O        -2.2736737662       -5.3839790505        0.0914794679
 C        -3.1968763223       -7.3914517679        1.8563764261
 C        -4.6147681984       -6.7576425454        1.7958035594
 C        -5.4178669297       -6.2037741111        2.9423805992
 C        -5.0953243191       -4.7068112208        2.8331551623
 C        -6.1491999670       -3.6910407202        2.0955353347
 O        -5.1010701758       -6.7066543517        0.6861469270
 O        -4.0902797882       -4.1825575331        3.2225994674
 C        -6.8585725209       -6.5462880488        2.8614182152
 C        -4.9142907977       -6.7263871152        4.2878898165
 C        -5.6576622218       -2.3256672341        1.8164183073
 C        -4.3443145318       -2.2816873379        0.9646025592
 C        -3.2581342255       -1.0996700790        1.2984362039
 C        -2.8267321604       -0.4600970596       -0.0474762271
 C        -3.0223060969        1.0318481339       -0.3903747613
 C        -3.8799619316        0.0174967585        2.2098277275
 C        -1.9947176542       -1.7528628936        1.8783237614
 O        -4.1971978544       -2.9641342497       -0.0568940148
 O        -2.2925717978       -1.1656995477       -0.8686694592
 C        -2.8063185289        1.3581667626       -1.8588952849
 C        -1.2642117622        1.6995175439       -2.0399345250
 C        -0.8201660109        2.5436583871       -3.2917179292
 C        -0.8817835446        4.0665186264       -2.9505584663
 C         0.3402865198        4.7566144604       -2.2875427511
 O        -0.4754137429        1.1611256737       -1.2732625845
 O        -1.9040536252        4.7791322562       -3.1954323547
 C         0.6562038672        2.0778839080       -3.4933259309
 C        -1.7603690440        2.3500704921       -4.5195166947
 C         0.2115761719        6.2918405662       -2.1078624232
 C         1.4682885311        6.7370695033       -1.3365456970
 C         1.7920995778        8.2670100409       -1.0944574079
 C         1.4675430163        8.2721777892        0.4075737934
 C         2.6444407252        8.7688474131        1.3936311723
 C         3.2555096374        8.5592265870       -1.4878797151
 C         0.7039191801        9.0379373762       -1.8959891360
 O         2.2668323588        5.9664243216       -0.9132642440
 O         0.4011443183        7.9570728690        0.8746101259
 C         3.0786415066        7.6228639394        2.2830794876
 C         4.3314424438        6.8259436467        1.8301710538
 C         4.7664686372        5.7955378839        2.7919477307
 C         3.8707502976        4.5287548900        2.7159539193
 C         3.8241733120        3.8119640223        1.3352282256
 O         4.8678582144        7.0230310916        0.7697592654
 O         3.4018116700        4.0196679685        3.6741126425
 C         6.2849464416        5.2817178688        2.4683815990
 C         4.8396193061        6.3074882732        4.2497118189
 C         2.8043450875        2.6300759764        1.3765585653
 C         3.5717750756        1.1686888195        1.5362155415
 C         2.8155387083        0.0666862083        2.3548014074
 C         2.3728781269       -1.1737528084        1.4930201362
 C         3.4106134780       -2.3555587305        1.2292384419
 C         3.8618794101       -0.2334541807        3.4339992317
 C         1.5673797014        0.5283565689        3.1309981430
 O         4.7152842438        1.0247179543        1.1922791182
 O         1.3131071903       -1.1900073563        0.8587289887
 C         3.1388996893       -3.2208409576        0.0260918144
 C         3.6153308026       -2.6447332449       -1.3102599902
 C         2.6545423165       -3.0717490659       -2.5869305044
 C         1.1250625791       -2.7979381519       -2.3501426653
 C         0.6071328997       -1.5966538791       -3.0026408270
 O         4.5099662592       -1.8802758491       -1.4919584542
 O         0.4044598421       -3.4182629212       -1.5884425984
 C         3.1988683052       -2.3894428709       -3.9277332489
 C         2.9304663307       -4.6523010339       -2.7197978973
 H        -5.3876402510       -6.4326372044       -1.6832585595
 H        -5.8377202442       -5.2561265675       -3.0143378683
 H        -5.1185939974       -6.7786412568       -3.3689164180
 H        -3.3861229516       -8.3983454536       -0.1017107988
 H        -1.6501383111       -8.0986309196        0.4545111918
 H        -3.8054732597       -8.2412618092       -2.2450356583
 H        -2.0863784535       -8.5604012192       -2.3112782287
 H        -2.9545431858       -8.0181453086       -3.7093598622
 H        -0.4866136939       -6.7290337956       -2.4346550930
 H        -1.2457809019       -5.9685765770       -3.6997786850
 H        -0.8326536407       -4.9994019741       -2.1000622752
 H        -3.2819136850       -8.3995855702        2.3173805025
 H        -2.4145177101       -6.7287296672        2.3600884684
 H        -6.4436395322       -4.1744231301        1.1648496870
 H        -7.0568155784       -3.6734164213        2.7655161254
 H        -7.2639469229       -7.2348269292        3.5200313535
 H        -7.0850013094       -6.9016470255        1.8591063571
 H        -7.3640378673       -5.6776488464        3.2112533965
 H        -5.6939202103       -6.5786250062        5.0109121489
 H        -4.6073841599       -7.7217310180        4.3546814073
 H        -4.0480628463       -6.0941028019        4.5025137060
 H        -5.5133403691       -1.8275875403        2.7658604507
 H        -6.6241701864       -1.8977555035        1.3213983201
 H        -4.0470710506        1.3904528870       -0.2604803074
 H        -2.3825516612        1.6371099885        0.1821656953
 H        -3.2197067265        0.8044503467        2.4166510280
 H        -4.1577792539       -0.4748106696        3.1782889570
 H        -4.6741412526        0.4859519207        1.7261510851
 H        -2.2890098151       -2.3821347685        2.7711336935
 H        -1.3196236666       -2.3024459970        1.2778232069
 H        -1.4163084228       -0.9135515690        2.3189688999
 H        -3.1398925639        0.6288009929       -2.5711664213
 H        -3.3319501987        2.2347750422       -2.2155779134
 H         0.3991846018        4.2339044733       -1.3712149616
 H         1.2040722137        4.4450267210       -2.7703405288
 H         1.1552013002        2.1156252629       -2.5015667337
 H         1.2408713496        2.3789869635       -4.3480175641
 H         0.4222705701        0.9692224515       -3.6718895548
 H        -2.3560698767        1.5234484412       -4.5842375774
 H        -2.4191760048        3.1994779769       -4.7643416583
 H        -1.0688549722        2.2459445258       -5.3663075501
 H        -0.6393116370        6.4880370740       -1.4337357073
 H        -0.0354191031        6.8295003545       -3.0065922146
 H         3.4698612143        9.2419839914        0.7565469944
 H         2.3729449342        9.5204265497        2.1509785760
 H         3.3980032124        8.5283628214       -2.5697633966
 H         3.9116118837        7.8048462841       -1.0185227691
 H         3.5179369308        9.6523345274       -1.0846190737
 H        -0.2783382849        8.9246567599       -1.6100261900
 H         0.8765317186       10.1124372656       -1.9641945882
 H         0.7173371965        8.7681605207       -2.9634587034
 H         3.2542602648        8.0594272144        3.3251672527
 H         2.2691875929        6.9545521780        2.4014432586
 H         3.4846440216        4.5599648582        0.5747482085
 H         4.8009332875        3.5150164502        0.9976576603
 H         6.4291274688        4.3614957553        3.1167219313
 H         6.9055908442        6.1577423470        2.7058531417
 H         6.4293335825        5.0800582352        1.4225999254
 H         5.3507126699        7.2849446675        4.2741463803
 H         3.8552834925        6.6215078940        4.6415502984
 H         5.3750907829        5.5490440259        4.9264346006
 H         2.4164645412        2.7560043508        0.2522717175
 H         2.0312036573        2.7251445906        2.1554500793
 H         4.3554995493       -1.8052882640        1.0338732046
 H         3.6329582369       -2.8983936519        2.1902338581
 H         3.5380682921       -1.1608945461        3.9131813718
 H         3.9406325357        0.5104728517        4.3116341049
 H         4.8632979139       -0.4049835909        2.9475599975
 H         1.6164874099        1.4451639203        3.7331972011
 H         0.6528953344        0.6082774054        2.5175878423
 H         1.4715762830       -0.1919356316        3.9096326383
 H         3.5416195159       -4.2415253564        0.1438409916
 H         2.0530949340       -3.3274214537       -0.0250896029
 H         1.4178183360       -0.7954508723       -2.8912546511
 H         0.1730665959       -1.8241959333       -4.0147755739
 H        -0.2633807570       -1.1907075369       -2.4809583016
 H         3.9620125318       -3.0187936106       -4.3058705748
 H         3.6025536489       -1.4006410160       -3.5574294604
 H         2.3940656359       -2.4210382242       -4.7311076601
 H         3.8740881475       -4.9303846601       -3.2471725360
 H         2.8360049916       -5.1833635220       -1.7493573690
 H         2.0615767877       -4.9906168458       -3.2702328287
 Na       -1.9609665687       -3.3604695907       -1.1499260173
