155

 C        -5.1958101841       -6.2207018582       -3.6463889460
 C        -3.9377056228       -5.8174710353       -2.9130403110
 C        -2.8466363157       -6.9685371428       -2.5259788817
 C        -2.5398334570       -6.8560493677       -0.9919179497
 C        -2.7162932557       -8.0849982301       -0.0550698884
 C        -3.3912887877       -8.3817001278       -2.9607175366
 C        -1.5534571646       -6.6028576942       -3.3414088138
 O        -3.6435028039       -4.6729914766       -2.6124181961
 O        -2.1774218632       -5.7713948214       -0.5669931864
 C        -2.8792407340       -7.5443832078        1.3726428876
 C        -4.1819469315       -6.6266613906        1.4319121477
 C        -4.7187384698       -5.9451254818        2.8343820628
 C        -4.6585183522       -4.4353288933        2.6275272481
 C        -5.3552202458       -3.7252741751        1.4621014743
 O        -4.7683352204       -6.3668357998        0.4281164279
 O        -4.0557560096       -3.8165641721        3.4761551306
 C        -6.2145406147       -6.4722454154        2.8612835060
 C        -3.9573435524       -6.3527977238        4.0298790910
 C        -4.9667446485       -2.3069599212        1.4402375425
 C        -3.4992773673       -2.1160573365        0.9929790107
 C        -2.8732788245       -0.7332714015        0.7395948490
 C        -2.9813005189       -0.4415227763       -0.7974271282
 C        -3.5382346586        0.8734279183       -1.3134915335
 C        -3.6226635137        0.3591191166        1.7212308446
 C        -1.4749421827       -0.8391477561        1.2060308155
 O        -2.9768237856       -3.1466852459        0.6013709906
 O        -2.6152614162       -1.2358807012       -1.6136378005
 C        -2.8387505071        1.2684452184       -2.6953324044
 C        -1.5139582832        1.8973571485       -2.5991879127
 C        -0.9309845504        2.6307752667       -3.8290774339
 C        -0.8290342805        4.0848427883       -3.2876517452
 C         0.3995165267        4.4721609801       -2.3024251223
 O        -0.8550214343        1.9134379357       -1.6073037542
 O        -1.8251953843        4.8502935132       -3.3535684785
 C         0.5487229990        2.1687496506       -4.0494400765
 C        -1.7104021701        2.5755426358       -5.1196556748
 C         0.1894666338        5.9378501004       -1.7156389871
 C         1.5470444086        6.5376847168       -1.3411897758
 C         1.5735373187        8.0976990721       -0.9269928120
 C         0.8414270734        8.3074127019        0.4247515074
 C         1.6413217500        8.3519985774        1.7095524557
 C         3.1311023767        8.4955342807       -0.9550749070
 C         0.8889200143        8.9273554178       -2.0147567858
 O         2.5763268734        5.9231211108       -1.2575885193
 O        -0.3845111839        8.4387072416        0.4566229871
 C         1.9643291364        7.0166675514        2.3173778906
 C         3.5179602726        6.8128929857        2.3688836664
 C         3.9055216547        5.5179002394        3.0444741609
 C         2.9802407337        4.3017706765        2.5416666915
 C         3.3448064632        3.5715037486        1.1192325959
 O         4.3780654427        7.5620079291        1.9109688540
 O         2.1624492320        3.8307894723        3.2645782149
 C         5.4282035776        5.1208252590        2.8896173275
 C         3.6111559331        5.5154513868        4.6357208167
 C         3.1279568262        2.0719720833        1.2485401268
 C         4.0333597519        1.3601720652        2.2797729125
 C         3.3495084485        0.0287540922        3.1801387141
 C         3.0153419775       -1.0709828329        2.2017208506
 C         4.1682125503       -1.9532492079        1.7877786330
 C         4.1966907010       -0.2745593889        4.4472020589
 C         1.9862190225        0.6351476008        3.6571071227
 O         5.2227482621        1.5820599945        2.3373488958
 O         1.9107240925       -1.0844917478        1.6370627740
 C         3.8276567629       -2.8787380113        0.6452990500
 C         3.4717528794       -2.1819024667       -0.6726657325
 C         2.7874473204       -2.9994870007       -1.8301272339
 C         1.2550182318       -2.8171946753       -1.7023450178
 C         0.6525373355       -1.4437882544       -1.4273532596
 O         3.7371102173       -1.0294570180       -0.8921315364
 O         0.4509557004       -3.6978912997       -2.0375339580
 C         3.1672373873       -2.4142257794       -3.2302601150
 C         3.1768226054       -4.5542556744       -1.6766242532
 H        -5.9731766521       -6.6677223185       -2.9714128222
 H        -5.6106928822       -5.2757423882       -4.0054985006
 H        -4.9210021699       -6.8688102347       -4.4491939291
 H        -3.6122349402       -8.7453915608       -0.3881613355
 H        -1.8214706751       -8.7414465376       -0.1556856174
 H        -4.4380851578       -8.4902785204       -2.6555875167
 H        -2.6984016598       -9.0902173643       -2.5786023230
 H        -3.3994099992       -8.4727166513       -4.0262809488
 H        -0.8028233454       -7.4101448930       -3.2426929965
 H        -1.7345244632       -6.6395832201       -4.4067914351
 H        -1.1853589988       -5.5723728187       -2.9797708311
 H        -2.9988270011       -8.3604611565        2.1295022884
 H        -2.0345940249       -6.9952736091        1.8532859933
 H        -5.0880891860       -4.0057697468        0.4376729409
 H        -6.4682365076       -3.7495155688        1.4653969760
 H        -6.2491838925       -7.5276782485        3.0738310263
 H        -6.7155055068       -6.1805874738        1.8673141511
 H        -6.8426348906       -5.8764172072        3.6028975255
 H        -4.4974202279       -6.4526373814        4.9674823735
 H        -3.4296880517       -7.2600108330        3.9623739042
 H        -3.1370816782       -5.6292797328        4.2285582155
 H        -5.1534883901       -1.9068666509        2.4446822174
 H        -5.5261494854       -1.6246480671        0.6993882474
 H        -4.5658776396        0.6740707881       -1.4819718429
 H        -3.4587070484        1.6610766058       -0.5558502449
 H        -2.9607640697        1.2090402502        1.8093464897
 H        -3.6924688130       -0.0318482007        2.8021985607
 H        -4.5231895793        0.7992042241        1.3581558785
 H        -1.5357505235       -0.8244839169        2.3423324572
 H        -1.0300434984       -1.7703746221        0.9009114460
 H        -0.8553080829       -0.0380569285        0.7921117849
 H        -2.7115923852        0.4727812897       -3.4640938199
 H        -3.5894931676        1.8865127085       -3.0171449071
 H         0.1717547321        3.6852093660       -1.5879085548
 H         1.3211272058        4.2549513425       -2.6912324170
 H         1.0869900006        2.2958866746       -3.1160946445
 H         1.1487020223        2.6247512215       -4.8123999814
 H         0.4709972489        1.1007249917       -4.2972534164
 H        -2.2147053439        1.7312066802       -5.3861462847
 H        -2.4599335031        3.4074926862       -5.0242000490
 H        -1.0617035853        2.9134331548       -5.9379251999
 H        -0.3797910866        5.8376963712       -0.8020534479
 H        -0.3739512037        6.4615407540       -2.4890204633
 H         2.6416767905        8.8899830380        1.7066257810
 H         0.9576314804        8.9705478424        2.3482464455
 H         3.4730180032        8.3171339228       -1.9341673376
 H         3.5856004596        7.7743555200       -0.3098259812
 H         3.2032599445        9.6375149130       -0.8365461918
 H        -0.1150416543        8.5925691345       -2.0148108285
 H         0.9795895732       10.0302597875       -1.9774910661
 H         1.1841036038        8.6513317624       -3.0577118266
 H         1.6922199497        6.8654443237        3.3475067079
 H         1.5330885521        6.1158836903        1.8203756770
 H         2.5427538218        3.9994343820        0.4686270477
 H         4.3561655972        3.8185170581        0.8204511746
 H         5.5902458294        3.9843656335        2.7886130091
 H         5.9528841057        5.4444808452        3.8279753442
 H         5.9735637066        5.5998910015        2.1112240959
 H         4.1553776502        6.2839511797        5.0854349769
 H         2.5839374994        5.7181291793        4.7859989477
 H         3.9339971197        4.5634570520        5.0786536359
 H         3.3317557187        1.6130775613        0.2974994703
 H         2.0914176150        1.9056027052        1.3960664062
 H         5.0219423501       -1.2638957425        1.5246446940
 H         4.4837102503       -2.6305054133        2.6128739200
 H         4.2307528208        0.6251560266        5.0352234507
 H         5.2745729692       -0.5378409931        4.2295210517
 H         3.6406143707       -1.1139771964        4.8627344949
 H         1.9466847386        1.7297878440        3.6320951113
 H         1.0664707240        0.3390167248        3.0735794465
 H         1.8661159509        0.3540186634        4.6627123541
 H         4.6697106633       -3.5376458015        0.5437062994
 H         2.9742831666       -3.4849482269        0.9261594054
 H         1.0623217712       -0.8168103746       -0.6514488247
 H         0.8702950185       -0.7311614354       -2.2227985095
 H        -0.3795785465       -1.5810256313       -1.3107383347
 H         4.3133939245       -2.5411625561       -3.3852585109
 H         2.7018367807       -1.4141166973       -3.3791024282
 H         2.7589470767       -3.0384890204       -4.0449695209
 H         4.2394447731       -4.6503456380       -1.9294679472
 H         3.3213681815       -4.8503834500       -0.6518193646
 H         2.6006231162       -5.1210478938       -2.3125610854
 Na       -1.8646796588       -3.4912418139       -1.4698714118
