155

 C        -4.8728623451       -5.4553709935       -2.5988158652
 C        -3.4709358033       -5.1216718839       -2.8203403965
 C        -2.4127610697       -6.2920689857       -2.6712091578
 C        -1.9938938866       -6.4294838910       -1.1526190423
 C        -2.4179320083       -7.7323724648       -0.4369731540
 C        -2.9555135430       -7.5375530300       -3.2889451908
 C        -1.1315070499       -5.8223232368       -3.4078620634
 O        -3.0998201831       -4.0048790802       -3.0632765172
 O        -1.3074461727       -5.5597257879       -0.6350097247
 C        -2.9202610379       -7.4418134778        1.0353492991
 C        -4.3081789305       -6.7701949659        1.2358514969
 C        -4.7855460858       -6.0757371797        2.6774362346
 C        -4.2142261876       -4.6278722153        2.5021896070
 C        -5.2776701729       -3.6293611034        1.9250493766
 O        -5.0844228962       -6.6327357712        0.2850167241
 O        -3.1991082222       -4.2398352589        3.0465572365
 C        -6.2789902471       -6.2603755196        2.8875734807
 C        -4.1066924343       -6.8244283223        3.8276933289
 C        -4.6875085844       -2.1980474986        1.9561979488
 C        -3.7607949407       -2.1128130088        0.7550409307
 C        -3.0835170274       -0.6875970069        0.4185715531
 C        -3.0519884429       -0.5260782234       -1.2033829090
 C        -3.7299346904        0.7176774337       -1.8853078179
 C        -3.6637754075        0.4909991312        1.1506865012
 C        -1.5303048958       -0.9435591419        0.8287807180
 O        -3.5408880096       -3.0759783276        0.0079508412
 O        -2.4745693174       -1.3154024392       -1.9299539003
 C        -2.9654372867        1.0694818665       -3.0923137015
 C        -1.6340362183        1.8739073640       -2.7722453442
 C        -0.8914256596        2.6994107479       -3.8380046650
 C        -1.1083714113        4.1875212679       -3.4231245504
 C        -0.0616248413        4.7289190848       -2.4497284822
 O        -1.2147751634        1.8482127542       -1.5986592443
 O        -2.0618086421        4.8612115492       -3.8239925032
 C         0.5535559582        2.2282731101       -3.9552100521
 C        -1.5251754150        2.6278000699       -5.2381375608
 C         0.0555854933        6.2245845955       -2.4679615701
 C         1.2631379215        6.5827574827       -1.5760291295
 C         1.3345477463        8.1092916221       -1.0114941156
 C         0.3758278176        8.1878653854        0.2298582834
 C         0.7722108455        8.1115129453        1.7104198789
 C         2.7651289079        8.4663746766       -0.6784787957
 C         0.7574586133        9.0677863094       -2.1607278695
 O         2.1268673986        5.7172591838       -1.3529672940
 O        -0.7723044207        8.2724288733       -0.0950751183
 C         1.2455345182        6.6305579793        2.0295262435
 C         2.5326749138        6.5126133169        2.8052781201
 C         3.1511851521        5.2086851516        3.3167242209
 C         2.8445514735        4.0669722588        2.3048327307
 C         3.9707495845        3.2126237606        1.8100603273
 O         3.1261083956        7.5527090955        2.9684948959
 O         1.7069372625        3.8415433855        1.9228147790
 C         4.6230269261        5.4724832481        3.5419791665
 C         2.3736229657        4.7733539052        4.5798323089
 C         3.7425357051        1.6587891217        1.8717266628
 C         4.0824273315        1.1470624977        3.2796890968
 C         3.4228744217       -0.1835840267        3.7849296070
 C         3.4405764099       -1.1735936453        2.4931000548
 C         4.7191034143       -1.6210175157        1.8317813711
 C         4.2488124277       -0.7713178666        4.8860972078
 C         1.9481442813        0.1637566666        3.9784998767
 O         4.7906858031        1.8745954705        3.9273119462
 O         2.3792310397       -1.5023274139        1.9132534087
 C         4.4459360874       -2.7334740366        0.8314679426
 C         3.9131861750       -2.2274560746       -0.5703113057
 C         3.1062396717       -3.2693914336       -1.5174893871
 C         1.6554252166       -2.7160457052       -1.6868075049
 C         1.5580915970       -1.2851407632       -2.2167261345
 O         4.2537008018       -1.1500173080       -1.0254455290
 O         0.7463427731       -3.3341454955       -1.2232216708
 C         3.6169794767       -3.3409579463       -3.0376206090
 C         3.2761745515       -4.7557568859       -1.0222014791
 H        -4.9920440482       -6.0539843632       -1.7156274148
 H        -5.4039263715       -4.5361958655       -2.5414747403
 H        -5.2399672037       -5.9159795031       -3.5436227807
 H        -3.2561919788       -8.1756721019       -0.9755449091
 H        -1.6123232368       -8.3969347358       -0.3824349980
 H        -4.0001633746       -7.6076551510       -2.9891607048
 H        -2.4141215835       -8.3596711484       -2.9028619416
 H        -2.9805083988       -7.6000091739       -4.3813657927
 H        -0.3652465450       -6.6306723856       -3.3473819758
 H        -1.3339995841       -5.6409923834       -4.5401507809
 H        -0.7682693959       -4.8608417103       -3.1183970142
 H        -2.8086292321       -8.2931974764        1.6788132666
 H        -2.3272302208       -6.5020119467        1.3633261834
 H        -5.6602389395       -3.9606896046        0.9889154230
 H        -6.1179953500       -3.6410463412        2.6449098835
 H        -6.4107662899       -7.3271247629        3.1846302798
 H        -6.7687737368       -5.9607711723        2.0149100615
 H        -6.6975996825       -5.6718310612        3.6779148135
 H        -4.1733715512       -6.2622987404        4.7168476224
 H        -4.3728838508       -7.9020506522        3.9740287564
 H        -3.0516697188       -6.8181743462        3.6527503054
 H        -4.0678426009       -1.9217981989        2.7944245847
 H        -5.4318266158       -1.3763229470        1.8595117284
 H        -4.8178470522        0.5667053836       -1.9547088707
 H        -3.6494520471        1.5191360989       -1.0997506694
 H        -2.9987635521        1.3459892727        1.0087563604
 H        -3.7168577422        0.3677363564        2.2057696501
 H        -4.6178180158        0.8223784343        0.7304232620
 H        -1.4748420319       -0.8177934212        1.8889441192
 H        -1.0653818896       -1.8816878002        0.3364499625
 H        -0.9698980405       -0.0801815522        0.4576829226
 H        -2.8105081100        0.1078689757       -3.7041649219
 H        -3.5809304028        1.7253186047       -3.7039576073
 H        -0.3142013540        4.4459602654       -1.3465672360
 H         0.9708602543        4.4173692511       -2.7442695354
 H         1.0013259704        2.0569068213       -2.9774014031
 H         1.1496700438        2.8989427409       -4.5492397829
 H         0.6420975129        1.2053650959       -4.4075391544
 H        -1.6040626205        1.5070133914       -5.4993395372
 H        -2.4175379590        3.1729041602       -5.3038818415
 H        -0.8916312926        3.0677199445       -5.9754470597
 H        -0.7796552028        6.8794257026       -2.2862490717
 H         0.2219500383        6.5002936060       -3.5282552375
 H         1.5728686105        8.8518536490        1.7160131017
 H        -0.0207756581        8.4085089301        2.3820982230
 H         3.3511685082        8.1628056784       -1.5429898718
 H         3.0055168338        8.0946195187        0.2681170500
 H         2.7384567408        9.5658769917       -0.7620806251
 H        -0.3579617852        9.1042596249       -2.2875497259
 H         1.1370026265       10.0407110858       -1.8914236639
 H         1.2951641409        8.8744187744       -3.0795185057
 H         0.4119642895        6.3726507373        2.7266866323
 H         1.2509231567        5.9663560450        1.1933347237
 H         4.1992695301        3.3583683300        0.7430119380
 H         4.9205641004        3.4545680383        2.1756775239
 H         5.2443593864        4.6358193131        3.7883382176
 H         4.8286976319        6.0347883240        4.4144220005
 H         5.1095530454        6.0458511954        2.6929678901
 H         2.8420244662        5.3485897182        5.3958488198
 H         1.3260171789        4.9113912626        4.4893690700
 H         2.6567982264        3.7877308129        4.8109703111
 H         4.4387691703        1.1674114887        1.0066149949
 H         2.6687959473        1.4769515821        1.5413310619
 H         5.1444922030       -0.8172996574        1.2400545044
 H         5.5324800183       -1.9018895052        2.5005632026
 H         5.2179481607       -1.2747180185        4.5776220373
 H         3.6484134815       -1.4616963072        5.4416995662
 H         4.5767099538        0.0530527976        5.5665302414
 H         1.8854505582        1.0816830140        4.6221642279
 H         1.4273903655        0.3328950655        3.0258564564
 H         1.5099787413       -0.6819036219        4.5339966101
 H         5.3822751291       -3.2377332009        0.4979131633
 H         3.8055119435       -3.6260149893        1.0741471830
 H         2.4932459866       -0.6716285643       -2.3707588245
 H         0.9932531302       -1.2902255245       -3.1597744801
 H         0.9553577634       -0.5515692919       -1.5980187681
 H         4.6317666141       -3.4135849983       -3.1269250423
 H         3.3247138276       -2.4890030291       -3.6599059064
 H         3.1871902372       -4.2070199477       -3.6026623516
 H         4.2627235664       -5.2144518469       -0.9809596300
 H         2.6735918621       -4.9825852658       -0.1573544837
 H         2.7896655404       -5.3955325132       -1.8642727651
 Na       -1.5590342550       -3.3306632343       -1.4427431966
