155

 C        -4.5780935127       -5.3138441576       -3.7327240856
 C        -3.1757717612       -5.0260860414       -3.1703843869
 C        -2.2995402661       -6.2176185469       -2.7086813632
 C        -2.0215970566       -6.3198547803       -1.2028743896
 C        -2.2694262320       -7.6214220252       -0.4618497836
 C        -2.9686891281       -7.5288702818       -3.1855947471
 C        -0.9085127502       -5.9239027121       -3.3950551126
 O        -2.6942956929       -3.8974451512       -3.1732576711
 O        -1.6283290572       -5.3750524897       -0.5392988054
 C        -2.6309644386       -7.3970790721        0.9846738504
 C        -4.1279451598       -6.7502773040        1.1630306090
 C        -4.6455090857       -5.9587527955        2.4290818609
 C        -4.0743482993       -4.4963234905        2.2514201663
 C        -5.0331693552       -3.4701092728        1.7311439445
 O        -4.7828528664       -6.7255467537        0.1565554014
 O        -2.9584923639       -4.1765065122        2.5157769834
 C        -6.1819537076       -5.9645320789        2.5586544690
 C        -3.9862693639       -6.5678643786        3.6893667859
 C        -4.4985244836       -2.0583181739        1.7391149001
 C        -3.5307385200       -1.8804632659        0.6357751412
 C        -2.7693959462       -0.4343608518        0.5865294598
 C        -2.7431598371       -0.1338933077       -0.9321108558
 C        -3.5556313456        1.0951628622       -1.3349760354
 C        -3.3419003252        0.7123845478        1.3939207032
 C        -1.3246454118       -0.8688664960        0.9806680896
 O        -3.4272832339       -2.6148826326       -0.3043965358
 O        -2.2437111601       -0.8711365201       -1.7372009533
 C        -3.2998260450        1.3938582474       -2.8152503134
 C        -1.6498149620        1.8292615754       -2.7535855942
 C        -0.9503151565        2.3772382521       -4.0087430672
 C        -0.9369979912        3.9311017284       -3.6579683591
 C         0.1293549825        4.4323544026       -2.6395002059
 O        -1.1160382178        1.8862671195       -1.6883500199
 O        -1.7072691529        4.6723259934       -4.1815699006
 C         0.4825179333        1.8391439385       -4.2741261687
 C        -1.8817789514        2.1171383397       -5.2565106781
 C        -0.1428781294        5.8225276709       -2.1474981010
 C         1.0917508441        6.4568547459       -1.6205980225
 C         0.8708450582        7.9392847746       -1.1943946425
 C        -0.0240041554        7.9699039533        0.1281116276
 C         0.5892281402        7.8086568716        1.6034867402
 C         2.1659848040        8.7551592219       -0.8415685965
 C         0.0818480221        8.7529727791       -2.2498580541
 O         2.1810159035        5.9832315160       -1.6086511372
 O        -1.2583508350        8.1185989596        0.0571595409
 C         1.1775913891        6.4492314682        1.7560153453
 C         2.2856941919        6.4551960647        2.8881406125
 C         2.4866294234        4.9606941128        3.7283831484
 C         2.4868407366        3.8782496874        2.6110602423
 C         3.8533177039        3.4010534353        2.1257089142
 O         2.8320544833        7.4494170303        3.2901793772
 O         1.4571086279        3.6023604937        1.9870041998
 C         3.6571374274        5.1322907473        4.7141947746
 C         1.1670666795        4.8278651974        4.5398726853
 C         3.8375659923        1.8749580650        2.0255324984
 C         4.0392297773        1.2255051473        3.3467112766
 C         3.4356713601       -0.1292114157        3.7179501502
 C         3.4604039748       -1.0415949299        2.3879955197
 C         4.6874436273       -2.0612515718        2.1698224912
 C         4.1503671043       -0.7446538638        4.8843970567
 C         1.9092876266        0.0611790790        3.9979627603
 O         4.8674800376        1.7380279986        4.0958472116
 O         2.4542305266       -1.2797317828        1.8069464632
 C         4.5449095147       -3.0429835848        1.0020693137
 C         4.0639119842       -2.3150793158       -0.3319417174
 C         3.4429050590       -3.2842946048       -1.4518903951
 C         1.8851910786       -2.8560937676       -1.6142616254
 C         1.4921092072       -1.4489330579       -1.9849767873
 O         4.2824880865       -1.1915362738       -0.6271280920
 O         1.0262114405       -3.6313064818       -1.2614998075
 C         4.2441124325       -2.9458896414       -2.7580970367
 C         3.5056619875       -4.8735615864       -1.2357510245
 H        -5.1090296013       -5.8713942282       -3.0018365718
 H        -5.0679045121       -4.3248732275       -3.9562127855
 H        -4.4833375467       -5.9139959459       -4.6606956063
 H        -3.0082368323       -8.2672936358       -0.9262007506
 H        -1.4828469494       -8.3656096965       -0.4545120457
 H        -3.8192578790       -7.7558099895       -2.5797218096
 H        -2.3551447271       -8.4287572974       -2.9669385813
 H        -3.2270359139       -7.6014215111       -4.2740248805
 H        -0.1711691576       -6.7094982199       -3.1001962313
 H        -0.9849985563       -5.9847512188       -4.4467633951
 H        -0.2895974563       -5.0615651060       -3.0811963262
 H        -2.5346194559       -8.3273419780        1.4895977215
 H        -1.9862588611       -6.7201299008        1.4797122030
 H        -5.3171736650       -3.7880146599        0.7675103202
 H        -5.9195650224       -3.6755466802        2.3315698148
 H        -6.4943636005       -7.0184681107        2.8785324962
 H        -6.7304839181       -5.8589676393        1.6133850392
 H        -6.4432423583       -5.2138806259        3.3094447415
 H        -4.4826381573       -6.0801099578        4.5616927575
 H        -4.2042951967       -7.5994747007        3.9140815421
 H        -2.9227682031       -6.3683895293        3.5996843535
 H        -3.8604929045       -1.6774403514        2.5032521959
 H        -5.1518014373       -1.2709430957        1.5468974573
 H        -4.6537646655        0.8346370068       -1.2686654579
 H        -3.2923960218        1.9223976602       -0.6768641071
 H        -2.9050115399        1.7375292723        1.3281762193
 H        -3.2783566618        0.4579939696        2.4101272398
 H        -4.4631347205        0.7712487609        1.3072084815
 H        -1.2715583153       -1.0955865031        2.0417635657
 H        -1.1309021019       -1.7809127673        0.4854374782
 H        -0.6134417082       -0.0782375232        0.6299110586
 H        -3.5274889809        0.6694560226       -3.5672918694
 H        -3.8137488037        2.2998787180       -3.1485411903
 H         0.3012554510        3.7082787793       -1.8410894716
 H         1.1243989842        4.5089374335       -3.0450813717
 H         1.1039342217        1.9047049115       -3.4037009157
 H         1.0345437335        2.5296485106       -4.9101308292
 H         0.4232698637        0.8843369552       -4.8103564301
 H        -1.9289533739        1.0648189839       -5.3315961573
 H        -2.9086684570        2.3551642425       -5.1404151008
 H        -1.3566383088        2.5302908358       -6.1097904638
 H        -1.0090044653        5.7483325086       -1.5666660430
 H        -0.2919018653        6.4071772085       -3.0600879320
 H         1.3103827475        8.6729836701        1.7006711560
 H        -0.1906016499        7.9027067433        2.3612211915
 H         2.7619205471        8.9307150814       -1.7510921870
 H         2.9231622346        8.1848341689       -0.2108744490
 H         1.8049237179        9.6720741629       -0.2661224976
 H        -1.0554900281        8.6190232169       -2.1901177713
 H         0.2075230889        9.7647729404       -1.9180910776
 H         0.3739624062        8.5551186418       -3.2567053112
 H         0.4272842922        5.5962053010        1.9166548054
 H         1.6489152974        6.0699745027        0.8794830511
 H         4.1779818863        3.7062972654        1.0893365857
 H         4.6160807557        3.6968488635        2.8339861819
 H         3.8673155988        4.4359078739        5.4856087371
 H         3.4979198242        6.1499487033        5.1515120914
 H         4.6721696450        5.2523139207        4.2467673805
 H         1.3383395603        5.4801065431        5.4276294984
 H         0.2570002028        5.2557244541        4.0545511010
 H         1.0070481966        3.7648541758        4.7332890886
 H         4.6951302100        1.5183839282        1.3050600846
 H         2.8685230434        1.5309830230        1.5163370042
 H         5.6968660412       -1.6442592101        2.1082412777
 H         4.6980797578       -2.6975269205        3.0933326080
 H         5.1081650453       -1.1205284625        4.7258674300
 H         3.6164814129       -1.5851846036        5.3643716285
 H         4.1731124820        0.0163376814        5.7188212421
 H         1.7202371288        0.7736764440        4.7762370428
 H         1.4481451222        0.3420890066        3.1006751938
 H         1.5600242213       -0.9370206215        4.3541441801
 H         5.5134168139       -3.4424935514        0.6971552632
 H         3.7496700801       -3.8367730584        1.1455925994
 H         1.5602105437       -0.8052669125       -1.1472716919
 H         2.1068124976       -1.0990185247       -2.8049549299
 H         0.5129134285       -1.2130726298       -2.2995890194
 H         5.3555558781       -3.0076217845       -2.7119303382
 H         4.1906415969       -1.8724468351       -3.0851332220
 H         4.0402706508       -3.5454545709       -3.7019263942
 H         3.8877323131       -5.2448447803       -0.3420200894
 H         2.4921536113       -5.2759245008       -1.2944906847
 H         3.9697082643       -5.2752283993       -2.1131494305
 Na       -1.2608473387       -3.1131328710       -1.4890587327
