155

 C        -4.1493560433       -5.3785313610       -4.2632593834
 C        -2.9509264996       -5.1657914750       -3.3108556317
 C        -2.0929529913       -6.4520777607       -2.9902131153
 C        -1.8747222562       -6.4142967325       -1.3618908567
 C        -2.3010733859       -7.5332592635       -0.4363808079
 C        -2.8361768200       -7.7823698581       -3.2895546613
 C        -0.6780595309       -6.4119323357       -3.5526385265
 O        -2.6436232691       -4.0723079483       -2.8602336547
 O        -1.5229260397       -5.3794492145       -0.8465631644
 C        -2.6317298440       -7.0709331905        0.9324527810
 C        -4.0514852528       -6.5099809351        1.0411376508
 C        -4.5973248872       -6.0862543921        2.3963084927
 C        -4.2964664717       -4.5382431041        2.3317237951
 C        -5.2924758477       -3.3709132179        1.8790870350
 O        -4.6922436302       -6.3537741371        0.0080772421
 O        -3.1840522444       -4.1767940726        2.7291111384
 C        -6.0739732382       -6.3037879765        2.5071809619
 C        -3.8905648472       -6.6092820471        3.7154963152
 C        -4.5768032829       -1.8863261580        1.7939021539
 C        -3.3778034983       -1.8918709727        0.8407559694
 C        -2.5855347933       -0.5115596043        0.6619647073
 C        -2.5953039627       -0.1355820395       -0.8558107589
 C        -3.3907174599        1.1340321558       -1.1860381922
 C        -3.1358277018        0.5978436629        1.5537124200
 C        -1.0528416508       -0.9219020208        1.0981391983
 O        -2.9833331373       -2.8488204709        0.2573289053
 O        -2.0111308816       -0.8480487077       -1.6156938048
 C        -3.0552352986        1.6669093524       -2.5978476292
 C        -1.4717808003        1.9884736357       -2.8407351293
 C        -0.9048863596        2.4919360182       -4.1503975571
 C        -0.6898841897        4.0921990359       -3.9970084950
 C         0.4410081476        4.6957702911       -3.1437896284
 O        -0.8767886618        1.8076342748       -1.8283302902
 O        -1.4950034847        4.7930523499       -4.5032921152
 C         0.4407864648        1.7540108143       -4.2663975065
 C        -1.7911525960        2.2290825024       -5.4196778575
 C        -0.1976703756        5.9351683438       -2.4199950316
 C         0.8859440330        6.7081377688       -1.7269589470
 C         0.6556941993        8.1876045811       -1.2586037193
 C        -0.0759532542        7.9348489690        0.1530676527
 C         0.7902624537        7.8673865311        1.4273150378
 C         1.9882739877        8.9965148688       -1.1090360313
 C        -0.3316103516        8.8628363463       -2.2217623353
 O         1.9009956743        6.1562514084       -1.4172119261
 O        -1.2822435425        7.4669730940        0.1301215169
 C         1.0967562931        6.4089960776        1.7218441787
 C         2.0703098904        6.2716634263        2.9569527327
 C         1.9739086954        4.8749550679        3.7447105190
 C         2.1890897495        3.5418742137        2.8773308338
 C         3.6040413046        3.3712814846        2.3412795630
 O         2.7601764514        7.1922866571        3.2815773715
 O         1.2277501289        2.8285087279        2.6909035282
 C         3.0760274228        4.9538588448        4.8109657091
 C         0.5921031005        5.0322610930        4.4814669016
 C         3.8406048265        1.8982703537        2.0243996991
 C         4.2946187848        1.2205040547        3.2710974629
 C         3.3367656388       -0.1063238084        3.6791294732
 C         3.2052966445       -1.0812626425        2.4450872927
 C         4.4492053268       -2.0307794289        2.2709701755
 C         3.9650927108       -0.8562198660        4.8770419771
 C         1.8280432138        0.2421986686        3.9658770759
 O         5.0987160911        1.6424557911        4.0561479773
 O         2.3683127945       -1.0751822615        1.6115649439
 C         4.1067971162       -3.0885758108        1.2250022522
 C         4.0357180744       -2.3895830818       -0.2219100274
 C         3.5480734386       -3.1660842443       -1.4734365978
 C         1.9496326558       -2.6643379934       -1.6679721864
 C         1.7404354631       -1.2376697397       -1.7292364605
 O         4.5219549404       -1.2329410827       -0.3810383022
 O         1.0777948279       -3.5375581288       -1.6476676416
 C         4.2504778391       -2.6763158221       -2.7551008614
 C         3.4995984742       -4.6818865475       -1.2890115816
 H        -4.8811669041       -6.0526403915       -3.9014452016
 H        -4.5905566998       -4.3752423251       -4.3818975545
 H        -3.7562715309       -5.7098809371       -5.2125584834
 H        -2.9688986581       -8.2384886631       -0.9390256590
 H        -1.4218081734       -8.2645835863       -0.3354587374
 H        -3.7560356263       -7.8085431385       -2.7439870300
 H        -2.3582173713       -8.7706918295       -3.0899929768
 H        -3.1775718106       -7.8123398194       -4.3378274436
 H        -0.0167046073       -7.0999532117       -3.1183887752
 H        -0.6975646633       -6.4325604848       -4.5582351400
 H        -0.1173249187       -5.5245598550       -3.3106842612
 H        -2.6445906529       -7.9045837607        1.6208016590
 H        -1.8957522698       -6.4226640205        1.3187501215
 H        -5.8134958101       -3.8658544067        1.0455700315
 H        -6.1012106571       -3.2389254877        2.6692436504
 H        -6.4165238201       -7.3232502731        2.5659172308
 H        -6.5630439237       -5.9306586160        1.5957814022
 H        -6.4067763515       -5.8457655096        3.4118209310
 H        -4.3449724306       -5.9677208549        4.5788099456
 H        -4.0566945830       -7.6728584453        3.8225691808
 H        -2.8055577397       -6.2866881751        3.7307070054
 H        -4.1032344689       -1.6069188698        2.7769828475
 H        -5.3477939385       -1.2115630462        1.5734260811
 H        -4.4211262943        0.7520790044       -1.1616934480
 H        -3.2482923609        1.8845953531       -0.4587326503
 H        -2.6015397498        1.5177082159        1.3176413456
 H        -2.9155816519        0.4647538916        2.5763475568
 H        -4.2220334346        0.7908242786        1.4844425013
 H        -0.9465576478       -1.3630357103        2.0812919823
 H        -0.6641191068       -1.6381652289        0.4763487986
 H        -0.5923416418        0.0810424019        1.0982402553
 H        -3.4053732974        1.1073885478       -3.4073735076
 H        -3.4295712345        2.6947931705       -2.7279259300
 H         0.9376100362        4.0355202069       -2.4863557399
 H         1.2600856501        5.0622976754       -3.6965360339
 H         0.9666967863        1.8710195773       -3.2872876333
 H         1.0811210570        2.1522847985       -5.1056816458
 H         0.3370422489        0.6411268343       -4.3077276835
 H        -2.0944502415        1.2137710857       -5.5129346099
 H        -2.7452117625        2.9118917497       -5.3855529110
 H        -1.2044197289        2.5245250941       -6.3453767447
 H        -0.8796440502        5.6355389376       -1.6567787824
 H        -0.6254968769        6.4667658422       -3.2749773287
 H         1.7677285706        8.3972125954        1.4286284391
 H         0.3063239674        8.2789377370        2.2698896423
 H         2.4780103428        9.0333576346       -2.1520966875
 H         2.7169881549        8.6013762027       -0.2838201161
 H         1.8931559071       10.0317564729       -0.8088623530
 H        -1.3013302280        8.4083386636       -2.0684742715
 H        -0.5424054376        9.8937756538       -1.8964787179
 H        -0.0083431287        8.9192702564       -3.2534840105
 H         0.2322488939        5.6675410507        1.8795385180
 H         1.6470908770        5.9937197388        0.9147427015
 H         3.5731660840        4.0107471972        1.4541212784
 H         4.3199995630        3.6006311505        3.1342863215
 H         3.4899233563        3.9983665013        5.0912126509
 H         2.7946300715        5.4272465180        5.7671786676
 H         3.9383318526        5.4496756722        4.4194393404
 H         0.3599734085        6.0145076377        4.8926574255
 H        -0.1992018019        4.7069800480        3.7622454714
 H         0.6471994900        4.2997405679        5.3076109662
 H         4.6813686879        1.7375486059        1.3637703383
 H         2.8987953417        1.3158733983        1.6151104182
 H         5.2293547306       -1.3724561515        1.9080817190
 H         4.9127173278       -2.5643862718        3.1227891762
 H         4.9780487970       -0.9724183728        4.8647617408
 H         3.5102886227       -1.8225464196        5.1052639010
 H         3.9255243599       -0.2401869780        5.7663199032
 H         1.6727155417        0.8847596031        4.8243640517
 H         1.3920300212        0.4922024967        3.0107620030
 H         1.3391400356       -0.7611196251        4.2039649260
 H         4.9616219383       -3.6915573219        1.0866220503
 H         3.1843894046       -3.6184450302        1.4480409005
 H         0.9520944712       -0.8485661015       -1.1060798361
 H         2.6631195215       -0.6568355851       -1.3835045680
 H         1.4665713804       -0.8130420046       -2.6991618854
 H         5.2948236469       -3.0994367077       -3.0019754377
 H         4.5218473879       -1.6322201046       -2.7672807761
 H         3.6112318801       -2.6720582493       -3.6061944918
 H         4.4399143182       -5.2004030230       -1.5781654159
 H         3.2887219368       -4.8484671794       -0.2056191454
 H         2.7556407060       -5.1045064518       -1.9143534932
 Na       -1.4556440863       -2.9787000208       -1.3815886300
