155

 C        -2.6856925258       -5.5352345740       -4.4088075409
 C        -1.5256907162       -4.9902749644       -3.4995024343
 C        -0.6293008533       -6.0372566870       -2.6777792714
 C        -0.9361401069       -5.7707044361       -1.1793993377
 C        -1.7973735034       -6.8377437340       -0.4558355130
 C        -0.9398550022       -7.4361676871       -3.2809075365
 C         0.8331517989       -5.7389926080       -2.9778756781
 O        -1.3751139812       -3.7950146375       -3.2941839682
 O        -0.4784447509       -4.8226499056       -0.5871380826
 C        -2.5761504731       -6.1946056435        0.7181474132
 C        -4.0647225772       -6.3995099865        0.6152197408
 C        -4.9560806788       -5.7561323022        1.6575789318
 C        -4.6075062759       -4.2027018829        1.7795890829
 C        -5.1571522139       -3.2762046920        0.6936550954
 O        -4.5122599540       -6.7736008467       -0.4428164672
 O        -3.8418563263       -3.7834435038        2.6038775850
 C        -6.4203127428       -5.9873716336        1.2001509299
 C        -4.6346871701       -6.3264184952        3.0866729625
 C        -4.5099957530       -1.7640369214        0.9157214072
 C        -3.1138583258       -1.6435490592        0.2967750086
 C        -2.1978352260       -0.5306261205        0.5523479127
 C        -1.7545995045        0.1736653403       -0.7557320050
 C        -2.1665530820        1.6586679786       -1.0288531092
 C        -2.9771563706        0.4958751211        1.3949784758
 C        -0.9204895874       -1.0812122587        1.1866064242
 O        -2.7690270809       -2.4915977856       -0.5559657248
 O        -1.1083964742       -0.4444245265       -1.5652506878
 C        -1.8183770800        2.0742376938       -2.4682838003
 C        -0.3714307477        2.5522658547       -2.7191761782
 C        -0.0755023709        2.9702415745       -4.1565820680
 C        -1.0482208991        4.1758643144       -4.3516461760
 C        -0.3763457743        5.5633432706       -4.1365911489
 O         0.4860114859        2.6344253502       -1.8720079242
 O        -2.1696015948        4.0500038067       -4.7393696404
 C         1.4400124628        3.2372664072       -4.2119256556
 C        -0.4579514585        1.7848126532       -5.1732688883
 C        -1.0780840959        6.5256993613       -3.2059923288
 C        -0.1183413336        7.4673326045       -2.5280366983
 C        -0.5918848607        8.2835620483       -1.2454838791
 C        -0.9928407447        7.1995184624       -0.0891403414
 C         0.1534834819        6.4756167274        0.6210811289
 C         0.5395797954        9.2855941975       -0.7812330804
 C        -1.8863163466        9.0050078062       -1.6641332435
 O         1.0263806130        7.5287560339       -2.9548129775
 O        -2.0972913466        6.8068353417        0.0560105467
 C        -0.0328556010        6.1736563652        2.1569410493
 C         0.2976304051        4.8346399507        2.5306534143
 C        -0.3783121203        4.1797412049        3.7866692718
 C         0.0012776511        2.6985090734        3.7594558118
 C         1.4581966417        2.3742588985        4.0892449330
 O         1.0673500963        4.1603791521        1.9041384821
 O        -0.8309423431        1.8623732477        3.3898993580
 C         0.2461606449        4.8645178755        5.0898693165
 C        -1.9017757424        4.3699035032        3.8617163457
 C         1.6368524966        0.8756766611        4.2518197007
 C         3.1042928136        0.3794400195        4.5852575269
 C         3.3166369142       -1.1552479702        4.6119351100
 C         3.5940072523       -1.4616038589        3.1454224282
 C         4.9390623092       -1.9908751008        2.6257380992
 C         4.5717367050       -1.7302683173        5.4420877392
 C         1.9456170325       -1.8329026838        4.9520153478
 O         4.0499639061        1.1416614070        4.5256723201
 O         2.6635338645       -1.2294490682        2.3388928918
 C         4.7945240425       -2.7741734482        1.2384516475
 C         5.2765266106       -2.0842852386       -0.0446036561
 C         4.5955655298       -2.5605901910       -1.4070731168
 C         3.1098563582       -2.2115407835       -1.2863722754
 C         2.6632450559       -0.9103459281       -0.7828924810
 O         5.9849885835       -1.1363220438        0.0849180896
 O         2.2881717564       -3.1126435167       -1.5307069301
 C         5.1661824060       -1.8147830475       -2.5727264167
 C         4.6600107996       -4.1010085311       -1.4979081461
 H        -3.3099129808       -6.2417141766       -3.7911593489
 H        -3.3225862481       -4.7156998050       -4.7884524442
 H        -2.3746653765       -6.1333364960       -5.2704284751
 H        -2.4675021580       -7.3789051595       -0.9974326198
 H        -1.1042803492       -7.5235998094       -0.0302924282
 H        -2.0219156520       -7.6699632739       -3.3873937880
 H        -0.4125471320       -8.1712614896       -2.6603242854
 H        -0.4992307013       -7.6640470208       -4.2194315815
 H         1.3602047867       -6.6210234794       -2.5682816451
 H         0.9015253357       -5.5061215750       -4.0356935097
 H         1.3448900412       -4.9887080299       -2.3717986406
 H        -2.3508566496       -6.6654542546        1.6911706949
 H        -2.2712791694       -5.2081341943        0.6309268932
 H        -5.0869029918       -3.7112537015       -0.3062058609
 H        -6.1924786379       -3.1378098139        0.8717916645
 H        -6.5369895160       -7.0787704872        1.0228174622
 H        -6.5269037067       -5.4241289191        0.2899172367
 H        -7.1854817303       -5.7607658061        1.9889431699
 H        -5.2619764861       -6.1344062084        3.9873655859
 H        -4.6484108459       -7.4177696403        2.9570895580
 H        -3.6590331261       -6.1010363948        3.5186466892
 H        -4.2699906368       -1.6617235045        2.0042600669
 H        -4.9570574750       -0.9217624576        0.4018293801
 H        -3.1683080827        1.9590150120       -0.8512846528
 H        -1.3224862947        1.9772505930       -0.3883449969
 H        -2.3781569217        1.3162682854        1.7185842800
 H        -3.2565681142        0.0509371686        2.4069770547
 H        -3.8356179790        0.9577986238        0.9363325218
 H        -0.8728373070       -1.2679321973        2.2830267600
 H        -0.5824063861       -1.9792731781        0.6776425622
 H        -0.1583974098       -0.2765940077        1.0583383917
 H        -2.0241985508        1.3559702087       -3.2621373947
 H        -2.4521491012        2.9267526113       -2.7431879802
 H         0.6153812660        5.3467782657       -3.7219398266
 H        -0.0845811891        5.8811125109       -5.1290997652
 H         1.7974186932        3.9421310983       -3.4203143536
 H         1.8935190614        3.4929052043       -5.1993825199
 H         1.8627398907        2.3057694564       -3.8386185025
 H        -0.2227347868        0.8493664915       -4.7699486491
 H        -1.5738578642        1.7958252668       -5.5136073520
 H         0.0401371983        1.8997868913       -6.1841511315
 H        -1.6597503048        5.9277985415       -2.5691910437
 H        -1.8397401077        7.0805195383       -3.7436277525
 H         0.3409690127        5.5769827887        0.0353993587
 H         1.0277743107        7.1364012359        0.5336264627
 H         0.4014982743       10.2680296600       -1.3948002859
 H         1.4982841780        8.7508539476       -1.0276929269
 H         0.3409970205        9.4873597620        0.2847393299
 H        -2.7024146170        8.1786020185       -1.6771441176
 H        -2.1448535126        9.6781684567       -0.8713761545
 H        -1.9066029129        9.6546186853       -2.5004627428
 H         0.5451082021        6.8338614445        2.7469195851
 H        -1.0522659930        6.3374481734        2.4028084138
 H         2.2817450951        2.6386353153        3.3161289515
 H         1.7526121680        2.8804649990        5.0372723692
 H         0.1951383593        4.1253591399        5.8824690568
 H        -0.1765462574        5.7524376707        5.4110276912
 H         1.3706814392        4.9421466625        4.8853997079
 H        -2.2779407804        5.4184228287        4.1244316692
 H        -2.2098418501        4.2032909500        2.8281145056
 H        -2.5362645183        3.6753017203        4.4666231985
 H         1.2672706962        0.5260621510        3.3545693816
 H         0.9693857087        0.4689118600        4.9859710355
 H         5.6128356302       -1.1566952867        2.4853274912
 H         5.3393437362       -2.5059120198        3.5058523977
 H         5.4461333435       -1.1163713870        5.1567894386
 H         4.6762328361       -2.7624411797        5.2077909728
 H         4.5900984941       -1.6302897110        6.5689498412
 H         1.4825279288       -1.6326256937        5.9309612872
 H         1.1533574830       -1.6280619078        4.2417098042
 H         2.0437983821       -2.8804286134        4.9426812966
 H         5.2395895902       -3.8027244238        1.3943026976
 H         3.6879339055       -2.9998331369        1.1573576301
 H         1.6004631140       -0.7948630443       -0.5609559514
 H         3.2028772610       -0.7600801176        0.1312896568
 H         2.8086268919       -0.0505634102       -1.4385723896
 H         6.2242475598       -2.0844007325       -2.6731803556
 H         5.0350525997       -0.7547860364       -2.3393375627
 H         4.5638158485       -2.0003130156       -3.4375152664
 H         4.4330271605       -4.5396454345       -0.5221324828
 H         3.9242653949       -4.4985487513       -2.1379615427
 H         5.6377248712       -4.4806819135       -1.9118355724
 Na       -0.2471058209       -2.7038873024       -1.4993771802
