155

 C        -2.2945327403       -5.6187593138       -4.4227285593
 C        -1.2710014904       -5.1244299621       -3.4984086751
 C        -0.3275660793       -6.1178663103       -2.8101849532
 C        -0.5353172040       -5.9101171815       -1.2053630041
 C        -1.1457090650       -6.9853470910       -0.3900608813
 C        -0.5692509580       -7.5985638790       -3.2669906149
 C         1.1538059572       -5.7657302776       -3.1609323912
 O        -1.0838455583       -3.9182702816       -3.3795545240
 O        -0.1647324356       -4.9201928514       -0.6627234923
 C        -2.2902296497       -6.4880129201        0.5833084075
 C        -3.6153731979       -6.3498575809       -0.1842606112
 C        -4.7922544857       -5.8449821393        0.6397158319
 C        -4.5844719620       -4.4297436172        1.1428214309
 C        -4.6541329848       -3.2507764284        0.0764446964
 O        -3.6179308680       -6.5437812476       -1.4143623709
 O        -4.6219239880       -4.0108909040        2.2892293503
 C        -6.1681446344       -5.7750433408       -0.1538115722
 C        -4.9184663903       -6.8296786327        1.8472961327
 C        -4.1417248490       -1.8776746221        0.6457434693
 C        -2.6775538998       -1.5912921103        0.2782113113
 C        -1.9856103791       -0.1661475455        0.2090053440
 C        -1.6934909769        0.0103080483       -1.4049356417
 C        -2.0899877198        1.4065634177       -1.9648156944
 C        -3.0471185377        0.8264173317        0.8727857615
 C        -0.7745409875       -0.2002109775        1.0776088731
 O        -2.0372404675       -2.6180282951       -0.1249223969
 O        -1.0620325947       -0.7593188637       -2.1019693801
 C        -1.5743964203        1.5932706943       -3.4219164947
 C        -0.2251794288        2.1290187214       -3.5624926366
 C         0.1303526577        3.1020044798       -4.7572435029
 C        -0.3106372665        4.5645148808       -4.6026622299
 C         0.1298017103        5.1916534855       -3.1834950530
 O         0.5963198775        1.8366419870       -2.6900625468
 O        -0.8216744187        5.1261853874       -5.5292118210
 C         1.6712433937        3.1901560151       -4.9112630150
 C        -0.2795808777        2.5452825569       -6.1183150994
 C        -0.7746341059        6.4275298854       -2.8512329593
 C        -0.1791107387        7.3646181493       -1.7897697747
 C        -1.2285151286        8.1555908819       -0.7653053392
 C        -1.9338650897        7.0275792678        0.0355810761
 C        -1.0946026207        6.2486689852        1.2044143457
 C        -0.4704209097        9.2488692736       -0.0006874609
 C        -2.3838304993        8.7230734163       -1.6785724714
 O         0.9994625016        7.2544853793       -1.4762911971
 O        -3.1077689078        6.8050915045       -0.0845054588
 C        -1.9086168562        5.0914685612        1.8134793811
 C        -1.0192236866        3.9398847244        2.1806682526
 C        -0.7638197815        3.5595557499        3.6629791385
 C        -0.1040363992        2.1554995923        3.8052497908
 C         1.4181768480        1.9310011642        3.6369477946
 O        -0.4585374813        3.3199052746        1.2688848747
 O        -0.9160214076        1.2373985510        3.9443593002
 C         0.3304932521        4.6492071310        4.2029762779
 C        -2.0178231176        3.8891408265        4.4929069343
 C         1.8855619400        0.4967092176        4.0544790735
 C         3.0959710420        0.4289177360        4.9382897643
 C         3.6283886197       -0.9112095409        5.4958824187
 C         4.1342414741       -1.7586426840        4.2387460154
 C         5.1593116867       -1.1096669622        3.2405567872
 C         4.8364889735       -0.7174970876        6.3889922547
 C         2.4834446328       -1.7187126314        6.2824418727
 O         3.6882240985        1.4441320401        5.1761113525
 O         3.8335131623       -2.9475703199        4.1000993066
 C         5.3231033181       -1.8795954459        1.9324142916
 C         4.2352523835       -1.3655143231        1.0113695667
 C         4.4411517428       -1.4275870964       -0.5639147606
 C         2.9369509901       -1.6793334982       -1.2354444066
 C         2.3948608958       -0.5526801160       -2.1737481965
 O         3.2161498911       -0.8395210504        1.4385138856
 O         2.3278012099       -2.6778313804       -0.9160328982
 C         5.0288934460       -0.0593790179       -0.9311016416
 C         5.3109969490       -2.5313576002       -1.0044538720
 H        -3.0739549500       -6.2504918719       -4.0577621193
 H        -2.7386486143       -4.7853118469       -4.8856005939
 H        -1.8723271056       -6.2146897532       -5.2366490888
 H        -1.4576974759       -7.8892121981       -0.9562971552
 H        -0.3565087585       -7.4367731739        0.2866643615
 H        -1.6182153788       -7.8430634334       -3.1355101938
 H         0.0081948593       -8.3068258106       -2.6585621620
 H        -0.2953788032       -7.6295334909       -4.3662629857
 H         1.9290209100       -6.4596307638       -2.7266097574
 H         1.2010188265       -5.7073254224       -4.2989137460
 H         1.3587169576       -4.8599826666       -2.5363694738
 H        -2.1964696275       -7.0444055874        1.5190061199
 H        -1.9109223152       -5.5572870379        0.9521276930
 H        -3.9971143106       -3.4463516172       -0.7914060630
 H        -5.6752173637       -3.3109933341       -0.2365874651
 H        -6.6601715279       -6.7083654652        0.0208710812
 H        -5.9231136386       -5.6607689901       -1.2678155551
 H        -6.8006078026       -4.9821081211        0.2761164908
 H        -5.6628631615       -6.5075416800        2.4777395503
 H        -5.2486555890       -7.8402411523        1.4915682752
 H        -3.9685843056       -6.8347006867        2.3728672557
 H        -4.2132046082       -2.0220847994        1.7860909125
 H        -4.7570069876       -1.0449956804        0.4010957522
 H        -3.1052506441        1.6998879008       -1.8342417851
 H        -1.4971988571        2.1376027496       -1.3814348691
 H        -2.6481652524        1.8117092439        0.8065420102
 H        -3.2505460019        0.3913020294        1.8344709925
 H        -3.9951029632        0.9237489154        0.3297281237
 H        -0.1120397215        0.5427912390        0.7134912461
 H        -1.0783737088       -0.0707537065        2.1117606943
 H        -0.1868483143       -1.1101613112        0.9963505758
 H        -1.4117719096        0.5796352368       -3.7363501859
 H        -2.4338258265        1.9406597279       -4.0678926659
 H         0.0839839534        4.4061386322       -2.4655956831
 H         1.1515486084        5.5312308193       -3.1575627846
 H         2.0788273482        3.2909852360       -3.9437897958
 H         2.0271322808        3.9899772327       -5.5188507809
 H         2.0279950944        2.2795520923       -5.4038451449
 H         0.1569385611        1.5185878053       -6.2028158758
 H        -1.3633071161        2.6918050947       -6.2346776249
 H         0.1511996696        3.1300319122       -6.9158962461
 H        -1.7584138932        6.0923759849       -2.5678574845
 H        -0.9814937387        7.0234075594       -3.7338645941
 H        -0.0746850547        5.9129524554        0.8593146094
 H        -0.8817614365        6.9898577446        1.9416827598
 H        -1.2126022883       10.1108505856        0.1269318408
 H         0.3478352142        9.7922528962       -0.5643771037
 H        -0.1837232647        8.8799901448        0.9862499590
 H        -3.0161241122        7.9748252371       -2.2306687364
 H        -3.1728349116        9.2975261429       -1.1169672871
 H        -2.0344862421        9.3913071939       -2.4383344686
 H        -2.4595676213        5.4892961025        2.6593746639
 H        -2.6097545207        4.8265894609        1.0625316884
 H         1.6521464370        1.9581346410        2.6362935296
 H         1.8387407820        2.6326076440        4.3760743386
 H         0.6166386752        4.5848617945        5.2517200910
 H        -0.0317929896        5.6792658831        3.9865113351
 H         1.2184742733        4.6840898239        3.5544480745
 H        -2.1017641252        4.9122764584        4.6868683516
 H        -2.8632002471        3.4943706182        3.9056675997
 H        -1.9505151862        3.2512181118        5.3609496635
 H         2.0136828475       -0.0358424775        3.2048398135
 H         1.1346174952       -0.0182871722        4.6823562487
 H         4.7872814849       -0.1071670461        2.9950948967
 H         6.0969577825       -1.0711955769        3.7906810702
 H         5.7068984470       -0.1421385630        6.0512586709
 H         5.2406917709       -1.7551531794        6.6556994938
 H         4.4712785923       -0.4003057215        7.3260806597
 H         2.0896496489       -1.1933278158        7.1256047422
 H         1.5822920474       -1.8342712171        5.6085461573
 H         2.7102753526       -2.8016549501        6.5076232380
 H         6.3450512350       -1.6942157904        1.4590836856
 H         5.2149786090       -3.0018806902        2.0142795170
 H         3.0505126828        0.1592413691       -2.6384761078
 H         1.6888715329       -0.9013435612       -2.8892722360
 H         1.7169639488        0.0569565124       -1.6626218529
 H         5.9988968369        0.2028500726       -0.4454575253
 H         4.3277053824        0.7181516861       -0.7375079213
 H         5.1358959787        0.1087346910       -1.9578111217
 H         4.9154112963       -3.5073153704       -0.8538495070
 H         5.4705948514       -2.5062132011       -2.1181179394
 H         6.3206331126       -2.6098483876       -0.7949375978
 Na       -0.0082797646       -2.7756421797       -1.6472456455
