155

 C        -2.2950904881       -5.5824374875       -4.2843812557
 C        -1.1410476537       -5.1076239324       -3.4795883929
 C        -0.2522081521       -6.1780867225       -2.7405327914
 C        -0.5306221171       -5.9562292880       -1.1841764080
 C        -1.1303670575       -6.9965436000       -0.2621294580
 C        -0.4917004202       -7.6268678968       -3.1819220549
 C         1.2405626043       -5.8919110247       -2.8288139750
 O        -0.8706817480       -3.9183789955       -3.5893831608
 O        -0.2171472176       -4.8974111876       -0.7246463527
 C        -2.4566598467       -6.5333222939        0.4927091672
 C        -3.6429407516       -6.3905232891       -0.4447558119
 C        -4.9414244001       -5.9339179480        0.3493279546
 C        -4.5659261198       -4.5809864380        0.9811755085
 C        -4.3067571794       -3.4499578613       -0.0161850700
 O        -3.6312948400       -6.5489615391       -1.6648178230
 O        -4.3996098255       -4.3385810698        2.1630558508
 C        -6.0899511064       -5.6933762540       -0.5670009240
 C        -5.2734128662       -7.0180356660        1.4313543317
 C        -3.5385516552       -2.1874477309        0.7240293490
 C        -2.4093816641       -1.6797013079       -0.1243187721
 C        -1.9082115364       -0.1924808829       -0.1140180423
 C        -1.3952584712        0.2345972283       -1.4747849622
 C        -1.9515323822        1.3996293502       -2.1381205975
 C        -2.9626008061        0.7134462856        0.5427111885
 C        -0.6899196601       -0.1900943902        0.8149787383
 O        -1.7489138496       -2.5039607971       -0.7564368985
 O        -0.6170544338       -0.5475479287       -2.1504896674
 C        -1.4841168662        1.5073663828       -3.6166887753
 C        -0.0685921892        2.1707465008       -3.6244802763
 C         0.4704705593        3.0991158431       -4.8462614723
 C        -0.4086732466        4.3911572783       -4.5508972218
 C         0.0202049261        5.0875942784       -3.1714085947
 O         0.6359200184        2.0926318448       -2.6667785487
 O        -1.2387769262        4.7707449158       -5.2828052398
 C         1.9943607514        3.2937245074       -4.6685591926
 C         0.0423301099        2.5100715402       -6.2066120398
 C        -0.9338895406        6.2434705129       -2.7088182085
 C        -0.3553820973        7.0246035950       -1.5738540719
 C        -1.2967626649        7.9585170006       -0.7840128304
 C        -2.0850893484        6.9908390683        0.1576256555
 C        -1.2833387117        5.8717621224        0.8508035841
 C        -0.4981370355        8.9070955225        0.0853900684
 C        -2.2301910661        8.6157870789       -1.8317608565
 O         0.7842557485        6.9363841639       -1.2178151191
 O        -3.2853357886        7.0393934865        0.2147504726
 C        -2.1018410546        5.2976187238        2.0599852252
 C        -1.5180112842        3.8863235429        2.3458330670
 C        -1.0180716032        3.6004931371        3.8163304735
 C        -0.4543088381        2.2051257692        4.0849367215
 C         1.1267732516        2.0405134729        4.0331347739
 O        -1.0741356564        3.1609740493        1.4711539879
 O        -1.1697055366        1.2050651529        4.2066135311
 C         0.1641969444        4.6885257424        4.1218709229
 C        -2.1643643140        3.7805500946        4.7862383858
 C         1.6166478276        0.5407734425        4.4203684217
 C         2.9809654136        0.5451362799        5.2672255224
 C         3.5761945829       -0.7897531494        5.7095587911
 C         4.0881832677       -1.4284855656        4.3978986608
 C         4.8274650464       -0.6324639784        3.2580190679
 C         4.8513013944       -0.5224603549        6.5684403766
 C         2.6882071063       -1.8842419872        6.3219972755
 O         3.6854407418        1.5716382274        5.1148187504
 O         4.1831874233       -2.6444063974        4.3413333714
 C         5.0966594621       -1.5266674337        2.1227147207
 C         3.9746692084       -1.2666290787        1.1312951394
 C         4.4320847311       -1.2230992274       -0.4019582721
 C         3.1137016010       -1.4352916715       -1.3146574214
 C         2.9665839680       -0.4577221054       -2.6316007415
 O         2.8385671087       -1.1277127715        1.4645128033
 O         2.3341057408       -2.3664276491       -1.0881344903
 C         5.0837451909        0.1872253009       -0.5878640935
 C         5.4598744990       -2.2911903550       -0.8282948373
 H        -3.0753786548       -6.1268241924       -3.7774867275
 H        -2.7096245684       -4.6672018255       -4.6726436867
 H        -2.1289407243       -6.2073267314       -5.1560094957
 H        -1.4733098812       -7.9080524860       -0.9040916001
 H        -0.3685817128       -7.2590520082        0.5112645844
 H        -1.5990770659       -7.7919330043       -3.1338121437
 H         0.0451325199       -8.2606806559       -2.4631016577
 H        -0.0599607656       -7.7234534694       -4.1668679470
 H         1.8549528579       -6.7441869010       -2.5967223496
 H         1.5482933025       -5.7744607635       -3.8943974094
 H         1.3617149093       -4.9002646888       -2.3211885345
 H        -2.6335884445       -7.2961285638        1.3010664787
 H        -2.1340067160       -5.5514090898        0.9091321911
 H        -3.6737179777       -3.8855797195       -0.8279536361
 H        -5.2218776268       -3.1114105966       -0.5582038496
 H        -6.5124243557       -6.6434062596       -1.0589812810
 H        -5.8197269138       -4.9733444743       -1.3583126690
 H        -6.7963588756       -5.0976493439        0.0015819472
 H        -6.2286915719       -6.8102964846        1.9248872987
 H        -5.2129294715       -8.0199411062        1.0026279353
 H        -4.4515987892       -6.9675385991        2.1879933701
 H        -3.1080934510       -2.7252929037        1.5857507232
 H        -4.3138153147       -1.4784528653        1.1080600872
 H        -3.0361476718        1.3930867253       -1.9696594959
 H        -1.7503306562        2.3463428709       -1.6157115500
 H        -2.5714434676        1.7897757376        0.7333224020
 H        -3.1677920910        0.3855944981        1.5285589694
 H        -3.9296765167        0.5925927265        0.0132969632
 H        -0.0555042429        0.6794630596        0.7409383373
 H        -0.9279579972       -0.4373577690        1.8212543699
 H        -0.0598598866       -0.9306052071        0.3877196640
 H        -1.6546762856        0.4628054382       -3.9922756323
 H        -2.2031626117        2.1356013883       -4.0933594628
 H         0.1433798873        4.3358748449       -2.4289059179
 H         0.9971479438        5.4775504550       -3.2636528601
 H         2.2846484653        3.7773928912       -3.7260451638
 H         2.1982590014        4.0006672375       -5.4539894347
 H         2.6042280534        2.4336707925       -4.6791653157
 H         0.1336702541        1.3812152946       -6.2222947277
 H        -0.9277419633        2.6399910239       -6.4600703420
 H         0.7614518895        2.9277769304       -6.8959817364
 H        -1.8253880605        5.7268048909       -2.3687281976
 H        -1.1030613813        6.8458399289       -3.6087792339
 H        -1.3346854187        5.0952809363        0.1376313481
 H        -0.2206057458        6.0630813189        1.1262359479
 H         0.1490680277        8.3756120674        0.6949788303
 H        -1.2142663329        9.5685184304        0.6784132492
 H         0.1671514151        9.6062052146       -0.4485577200
 H        -2.8820848962        7.9304049003       -2.2855581243
 H        -2.8123144496        9.3536499460       -1.2527308951
 H        -1.7806480645        9.1673640650       -2.7552448272
 H        -2.0855557260        5.8617962937        2.9459788747
 H        -3.1781785600        5.2782936935        1.8070079160
 H         1.5329492048        2.2633221088        2.9674634308
 H         1.3913776266        2.8313206865        4.7295664090
 H         0.4726864762        4.4930628912        5.1630921937
 H        -0.1577394502        5.7690629405        4.1434896023
 H         1.0083557181        4.5244818371        3.5319726829
 H        -3.0545822241        4.1486811793        4.2804888649
 H        -2.2959196866        2.7432686389        5.1921745044
 H        -1.8822657011        4.3999565425        5.6312265038
 H         1.7070886131       -0.1040063878        3.5299306827
 H         0.9831954218        0.0504619151        5.1229124428
 H         4.2604169029        0.2288401971        2.8599177536
 H         5.7845256716       -0.1563028766        3.6197181442
 H         5.4020132906        0.2477321601        6.0317196428
 H         5.4193872817       -1.4176352072        6.6102857707
 H         4.7068732687       -0.0476521566        7.5842261535
 H         2.1317090758       -1.4342103618        7.2086515933
 H         2.0447176358       -2.3378810630        5.5911997778
 H         3.2884883070       -2.6991902444        6.7510036841
 H         6.0271550715       -1.3997434352        1.6325077795
 H         5.2561912715       -2.5897672265        2.3459864937
 H         3.7778502868       -0.5922243219       -3.2654651845
 H         2.0344682690       -0.7172341131       -3.0953392974
 H         2.9068303688        0.6125098792       -2.4670700040
 H         5.8439077135        0.4302540601        0.2455115124
 H         4.3341246458        0.9384712676       -0.4334764945
 H         5.7096955933        0.3519350081       -1.5331745714
 H         5.2596274870       -3.3247070544       -0.5122841863
 H         5.4129975620       -2.4636431511       -1.8673230635
 H         6.5075293652       -2.2604067904       -0.5456312957
 Na        0.1423071745       -2.7300548254       -2.0763481743
