117

 C        -6.0084800080        8.6133890952       -4.6907112309
 C        -7.0965966449        9.7442678733       -4.8478076644
 O        -6.9115239971       10.8221662608       -4.3967161934
 C        -8.4793906438        9.3958818840       -5.5445577148
 C        -9.3078572368        8.9519869342       -4.3197523146
 O        -9.5518438395        7.7759493492       -4.1017819766
 C        -9.8987787501       10.1428236563       -3.4023305951
 C       -10.3723888326        9.5170344014       -2.0948552817
 C       -11.5355174599        8.5456505850       -2.3849266783
 O       -12.4518706958        8.7562686729       -3.1765284179
 C       -11.8154543658        7.2397472549       -1.4652631048
 C       -10.4214490903        6.4664521764       -1.4819107234
 O        -9.4069311587        6.9397378610       -1.0109709920
 C       -10.3141832818        5.2064450967       -2.3878309912
 C        -8.9310939004        4.6543753617       -2.3972571064
 C        -8.4891104107        3.8234447715       -1.0849306650
 O        -9.3544414142        3.2538123114       -0.4569582181
 C        -7.0560402260        3.9687428681       -0.6198057388
 C        -6.5660627176        2.6532961639        0.0995072724
 O        -7.2640175479        2.0818518143        0.9000407448
 C        -5.2213838757        2.1092405368       -0.1955900801
 C        -5.0032446109        0.7218151361        0.4112320111
 C        -6.1333314691       -0.3290788342        0.1799793158
 O        -6.4615400254       -0.6592145890       -0.9109827844
 C        -6.6841699044       -1.2206284145        1.3901082153
 C        -8.1674909661       -0.7531798479        1.5826351177
 O        -8.4249003858        0.2591764315        2.2351771054
 C        -9.2872012127       -1.6929482981        0.9676220218
 C       -10.6211149707       -1.6120753719        1.6711892408
 C       -11.5689420835       -0.5189410737        0.9942766301
 O       -11.1090929650        0.5359055348        0.5988936121
 C       -13.0328683409       -0.9040336493        0.6239181069
 C       -13.9485088201       -0.4792742527        1.8258093861
 O       -14.0860202032       -1.2949649399        2.7234553380
 C       -14.5315919754        0.9640427411        1.9252399327
 C       -13.8452182868        1.6549417465        3.0960663098
 C       -12.4950135180        2.4290344981        2.9375838055
 O       -12.0239266311        2.6447508341        1.8552593087
 C       -11.7618000922        2.9616055905        4.3293643481
 C       -10.8542001994        4.1690469444        3.9645001311
 O        -9.8674400729        3.9671695285        3.2136690707
 C       -11.3877061999        5.5960952000        4.3193391529
 C       -12.7934506766        3.3044736438        5.4499219618
 C       -10.7363836125        1.8095163898        4.7688280271
 C       -13.2974314308       -0.2368238604       -0.7476999622
 C       -13.0994975592       -2.4690856909        0.3444804066
 C        -6.3747610591       -2.7126005016        1.0912897304
 C        -5.9684529965       -0.9808909704        2.7988856826
 C        -6.1841370386        4.5161213288       -1.7478990435
 C        -6.9684826580        5.0101809320        0.5178136098
 C       -12.0255062401        7.7140012814       -0.0051338188
 C       -13.1167918417        6.3927374842       -1.8639122923
 C        -8.8895803692       10.6746557255       -6.2731620469
 C        -8.3853119241        8.2641494884       -6.6193449698
 H        -5.3416443186        8.8636350810       -3.8742213547
 H        -5.4157944980        8.4368554793       -5.6068326366
 H        -6.5875680201        7.6953693144       -4.3863511869
 H       -10.7452703249       10.5396883839       -4.0663034269
 H        -9.1544700635       10.9023561177       -3.1239074464
 H       -10.8187448338       10.3488096139       -1.4838365034
 H        -9.5748070553        8.9558532494       -1.5381467797
 H       -10.4484836808        5.5744232367       -3.4089638743
 H       -10.9835378927        4.4077436028       -2.1203359086
 H        -8.1950053729        5.4810462635       -2.3831747160
 H        -8.8062702678        4.1646845541       -3.3257769230
 H        -4.4037610063        2.8793798974        0.1070956076
 H        -5.1024272926        1.9889749924       -1.2481481404
 H        -5.0839126106        0.8817490019        1.5058946209
 H        -4.0548662488        0.3207921161        0.0635872354
 H        -8.9866106769       -2.7876063930        0.9493710878
 H        -9.3315677998       -1.3706835920       -0.0732511985
 H       -10.3926428219       -1.3502107390        2.7146990490
 H       -11.1748541637       -2.5696682956        1.6063544765
 H       -15.6696201888        0.9023957891        1.9889321149
 H       -14.3440188691        1.5233726270        0.9877013437
 H       -13.6958229524        0.8295550722        3.7811491344
 H       -14.6750477386        2.2856408931        3.5205499658
 H       -10.5012574176        6.2251615008        4.1637113438
 H       -11.7680402479        5.6044581273        5.3034559354
 H       -12.2409260548        5.8258680441        3.6769214114
 H       -13.3428455033        2.4655520876        5.7669006521
 H       -13.5616940011        4.0084371122        5.1948797382
 H       -12.2855662434        3.6303407177        6.3085839637
 H        -9.9739009161        2.2932952461        5.3782878207
 H       -10.3059224080        1.4139890900        3.8578974028
 H       -11.2058208936        1.0319675282        5.3858194416
 H       -14.3662602586       -0.0592170260       -0.7948115574
 H       -12.9980885345       -0.9078273080       -1.5802858240
 H       -12.7919295059        0.7403332235       -0.8190258450
 H       -13.9397608985       -2.6299067468       -0.3856831704
 H       -13.3841142247       -2.9082005835        1.2513933817
 H       -12.1328841235       -2.8187574171       -0.1237311940
 H        -5.3269735375       -2.8335104032        0.9080538425
 H        -6.8384582105       -2.9513985112        0.1061825129
 H        -6.7234088714       -3.4157794360        1.9084267230
 H        -6.0461650139        0.0839778528        3.0792879876
 H        -4.9162586909       -1.2042897891        2.7460057497
 H        -6.4246725931       -1.5102640510        3.6949978654
 H        -5.1355886959        4.5937945866       -1.4229161646
 H        -6.4548631491        5.6154890398       -1.8709769859
 H        -6.3699494031        3.8957981209       -2.6757012080
 H        -7.4764456767        5.9288190477        0.2449442379
 H        -5.9167934892        5.1832634395        0.7481949140
 H        -7.6075083377        4.6068907144        1.3407919053
 H       -11.1505059610        8.3335037514        0.3827113370
 H       -12.2267651732        6.8319876094        0.6301469979
 H       -12.8566957864        8.5107280479        0.1001178859
 H       -14.0336352557        6.8334787100       -1.5023614929
 H       -13.0063129245        5.4011888387       -1.3965051070
 H       -13.2628928906        6.2314520194       -2.9439407534
 H        -8.6410009470       11.4950978040       -5.5916475050
 H        -9.9400363406       10.6958632992       -6.5585467424
 H        -8.3499241974       10.7696319907       -7.2063542387
 H        -9.3466044588        8.3480783977       -7.1780608998
 H        -8.2969703501        7.2576991485       -6.2304304026
 H        -7.5986600915        8.6267153323       -7.3227150689
 Na       -9.6366933147        2.3067582998        1.6886245305
