117

 C        -5.8629931818        8.5666809150       -4.9734088698
 C        -6.9556948190        9.5720555372       -5.4068478625
 O        -6.7962058000       10.7158839678       -5.1093289802
 C        -8.2851074028        8.9924449412       -5.9867024279
 C        -9.0292055102        8.7793764662       -4.6841056899
 O        -9.0254118283        7.7541042458       -4.0203647434
 C        -9.7650488225        9.9613811559       -4.0285087997
 C       -10.3923555925        9.6846311500       -2.6652822898
 C       -11.5943323524        8.6040639418       -2.7604981717
 O       -12.1822500969        8.4800147514       -3.7905630840
 C       -11.7092457248        7.4658432915       -1.5753771482
 C       -10.3864702895        6.6600900564       -1.6134067622
 O        -9.5481024217        6.9907613444       -0.8126572474
 C       -10.2487422620        5.3773648838       -2.5288229094
 C        -8.8708646363        4.8128929625       -2.2530855816
 C        -8.6548376762        4.2748335810       -0.8420148674
 O        -9.6011393951        3.9781178854       -0.1289329373
 C        -7.1717758062        4.0879730100       -0.3546793542
 C        -6.9586768669        2.5833385477        0.0764809333
 O        -7.8865778770        1.8416027406        0.3776500514
 C        -5.5813711770        2.0955529842       -0.1342032549
 C        -5.3710596338        0.8049021215        0.7396231084
 C        -6.3068898687       -0.3448995418        0.4001811036
 O        -6.6441472100       -0.5581685249       -0.7335783892
 C        -6.7661704148       -1.3940413845        1.5158480978
 C        -8.2884254271       -0.8357662977        1.9131521010
 O        -8.4927454875        0.1723905850        2.5778679371
 C        -9.4069220438       -1.7412822055        1.3815680387
 C       -10.7911415173       -1.2349278197        1.7158541037
 C       -11.3975396453       -0.4003317549        0.6419665573
 O       -10.6893371993        0.3981476404        0.0761658479
 C       -13.0339141979       -0.4419748129        0.5595212195
 C       -13.5739854096       -0.3375957881        2.0379976012
 O       -13.5414742232       -1.2907446355        2.8093506719
 C       -14.3664463285        0.9090417580        2.4166603877
 C       -13.8431982399        1.4857263822        3.7426957185
 C       -12.4241576233        1.9950108715        3.4917947259
 O       -11.9635459666        1.9491718884        2.3825263228
 C       -11.6500708899        2.8745901578        4.6359465253
 C       -10.8625097575        4.0444286855        3.9812404591
 O        -9.8604682033        3.8812408415        3.2905246641
 C       -11.3578609433        5.4227352446        4.3546684374
 C       -12.6261959817        3.3852471477        5.7258675539
 C       -10.5866111911        1.8731876539        5.1902221941
 C       -13.5303612895        0.5363500304       -0.4483708165
 C       -13.4162318044       -1.9027839892        0.1617226452
 C        -6.8955044603       -2.8327318483        1.0233723213
 C        -5.8441485254       -1.4131706693        2.7937760776
 C        -6.1670414562        4.5681826684       -1.4154604636
 C        -6.9295259851        5.0689309238        0.8459424139
 C       -11.8552852538        8.0673074403       -0.1961525159
 C       -13.0184445906        6.6625676811       -1.7659865736
 C        -8.8969986667       10.1390406963       -6.9043400579
 C        -8.1928996792        7.6412756161       -6.7211776584
 H        -4.9165784611        8.9214490803       -5.3250855090
 H        -6.1234849476        7.5326198399       -5.2426194907
 H        -5.8838929293        8.4645851721       -3.8523775179
 H       -10.5299926127       10.3142846259       -4.7264668552
 H        -9.0311974049       10.6774784694       -3.8650148176
 H       -10.8256219923       10.5507850841       -2.2487157641
 H        -9.7024244186        9.3749922091       -1.9190131519
 H       -10.2830262218        5.8481732947       -3.5085373310
 H       -11.0843332359        4.6368079127       -2.4458639548
 H        -8.0519249595        5.5735604949       -2.5047486791
 H        -8.7985160362        3.9285963069       -2.8673534617
 H        -4.8566917069        2.8518142128        0.1645705520
 H        -5.4104892077        1.8217332582       -1.1468175634
 H        -5.5328177751        1.0472157892        1.8080259717
 H        -4.3661976336        0.4068474862        0.6539220806
 H        -9.4383769286       -2.7533746633        1.7745440811
 H        -9.2003854140       -1.8065312557        0.3344865447
 H       -10.8534297485       -0.7546696906        2.6456241679
 H       -11.5132851541       -2.0428184396        1.9511261790
 H       -15.3341455790        0.4830938699        2.5196539107
 H       -14.3482565456        1.6713097338        1.6859516099
 H       -13.9033706081        0.7685281134        4.4896368028
 H       -14.5057259137        2.3353142449        4.0669600511
 H       -10.8152097859        6.0729544394        3.6167497808
 H       -10.9894858469        5.6190899315        5.3380612697
 H       -12.4401098209        5.5874898291        4.2425377825
 H       -12.8069567190        2.5820209231        6.4334091208
 H       -13.5169421309        3.7732814029        5.1735487769
 H       -12.2692872800        4.2912308843        6.2184818756
 H        -9.7821327579        2.4379208123        5.6302946908
 H       -10.1845323484        1.3535250648        4.3384387738
 H       -11.0727921025        1.2278192659        5.9068242817
 H       -14.6186885629        0.5351795791       -0.4865911077
 H       -13.2154008104        0.2068214677       -1.4766752861
 H       -13.1247929920        1.5608914129       -0.3217660774
 H       -14.3912575734       -1.7200118629       -0.3833423106
 H       -13.6070346996       -2.4997289701        1.0075333035
 H       -12.6213085489       -2.4107695828       -0.5048844546
 H        -5.9295640658       -3.2520729901        0.8332409499
 H        -7.4029251905       -2.8048786072        0.0406685847
 H        -7.4405161353       -3.4662921895        1.7656109492
 H        -6.0045987673       -0.4845866250        3.3511524241
 H        -4.8084945414       -1.3929245777        2.5943667485
 H        -6.0253786630       -2.3071985602        3.4336243196
 H        -5.2370455463        4.0894774414       -1.3453853511
 H        -6.0733960838        5.6620993264       -1.4020837266
 H        -6.5028996105        4.3318556030       -2.4140864593
 H        -7.1099249996        6.0367863104        0.4106893522
 H        -5.9433848940        4.9785964852        1.3117831389
 H        -7.6305966261        4.7669507767        1.6513376656
 H       -10.8602135756        8.3947664339        0.0837252936
 H       -12.1301453120        7.4060835633        0.5763449691
 H       -12.5755236945        8.8903787087       -0.0882388659
 H       -13.8074763927        7.2281872054       -1.3561814427
 H       -12.9404579268        5.7349071473       -1.1870774488
 H       -13.2171526739        6.4375893290       -2.7930240579
 H        -8.6724126298       11.1559319201       -6.5460317860
 H        -9.9757656774       10.0104902480       -6.8460765761
 H        -8.4912095797       10.0270092307       -7.9136476287
 H        -9.2318105876        7.6096964033       -7.1647972939
 H        -7.9853993546        6.8296150419       -6.0108650127
 H        -7.4269709127        7.7238030985       -7.5504005462
 Na       -9.9403970958        2.3343680632        1.4149562982
