117

 C        -5.4112132489        8.6433054079       -5.5297441806
 C        -6.5728104862        9.5004310100       -6.0565613277
 O        -6.5546049774       10.7124773834       -6.1657235206
 C        -8.0056382537        8.6995342089       -6.2873634584
 C        -8.7738742920        8.6201389123       -4.9863287358
 O        -8.6390609928        7.6530668528       -4.2669068128
 C        -9.6693349246        9.7959257926       -4.5595358282
 C       -10.3870808382        9.5889949215       -3.2176586015
 C       -11.5123326745        8.4154124653       -3.1774919000
 O       -12.1856012746        7.9890804346       -4.0646340584
 C       -11.7885064748        7.8552476137       -1.6633882311
 C       -10.6802199292        6.8234463180       -1.3245436178
 O        -9.8249323570        7.0104206632       -0.5023520087
 C       -10.5421630968        5.4559798165       -2.0476623172
 C        -9.1137031797        5.0284239566       -1.9225725432
 C        -8.8284458000        4.0671170156       -0.7408416088
 O        -9.7732314359        3.4191889509       -0.3340864449
 C        -7.3286046422        4.0391462120       -0.1825574162
 C        -6.9300719600        2.5520899916        0.0631386642
 O        -7.6554166478        1.6977146545        0.6046659662
 C        -5.4742361391        2.0637336163       -0.1635731186
 C        -5.1545853403        0.7964802683        0.6707291745
 C        -6.1163945745       -0.4329905642        0.4485929572
 O        -6.1904363776       -0.8351727217       -0.6807016058
 C        -6.8395230481       -1.2549666253        1.7083041147
 C        -8.3196844944       -0.7988912405        1.7904151996
 O        -8.6757460583       -0.0651727868        2.7307247944
 C        -9.3423643471       -1.3395165453        0.7945057082
 C       -10.8192708315       -1.4079944922        1.2986432340
 C       -11.7013778160       -0.2674646714        0.6431829860
 O       -11.0703787492        0.6041750003        0.0834411485
 C       -13.2743894166       -0.1262589281        0.8091198171
 C       -13.7574997046       -0.0789281378        2.3129110322
 O       -13.5374321617       -0.9952571248        3.0607931629
 C       -14.6877003177        1.1080348484        2.8623011163
 C       -14.0007792917        1.8178662282        3.9981857799
 C       -12.4851809260        2.0364645458        3.7271965453
 O       -12.0516657073        1.7591467157        2.6366916307
 C       -11.5481728696        2.6778837940        4.7896791561
 C       -10.8503931267        3.9016372624        4.1824937512
 O       -10.1054756901        3.7497384996        3.2291434573
 C       -10.9749524258        5.4060993945        4.6843751460
 C       -12.2639072105        3.0200332028        6.1434938929
 C       -10.3848557878        1.6661427582        5.2030431315
 C       -13.7915405273        1.0830299017       -0.0425808740
 C       -14.0023376879       -1.3114149958        0.1238525839
 C        -6.6959533344       -2.7325378262        1.2985400063
 C        -6.1186589645       -0.9719228075        3.0319715269
 C        -6.2715464018        4.6693386554       -1.0829911478
 C        -7.3397477544        4.7671067075        1.2237845856
 C       -11.8806909493        8.9162157686       -0.5431570195
 C       -13.1568676669        7.1289998206       -1.7470326007
 C        -8.7436714518        9.6320130559       -7.2981930641
 C        -7.7405902599        7.3298750680       -6.9334326298
 H        -5.6656825401        7.6737616994       -5.1843714588
 H        -4.8352919564        9.1781015541       -4.7949929213
 H        -4.7526035342        8.5272705488       -6.3980738857
 H       -10.3685932218       10.0566218192       -5.4054892662
 H        -8.9609141755       10.6478681785       -4.4708509041
 H       -11.0041820090       10.4745632484       -2.8842463768
 H        -9.7166473487        9.3903801944       -2.3508871786
 H       -10.8246893231        5.5568587139       -3.0615666080
 H       -11.2352421520        4.7064153626       -1.6415919457
 H        -8.4153758867        5.8881769039       -1.9376913671
 H        -8.9726608076        4.4538817216       -2.8221068695
 H        -4.7433164453        2.7667135030        0.2468855101
 H        -5.2039729345        1.8832163646       -1.2544183417
 H        -5.1787082882        1.0371941408        1.7582043811
 H        -4.0854609713        0.5279206190        0.6071073090
 H        -8.9504951735       -2.3225613817        0.3994691409
 H        -9.3576281135       -0.6714618888       -0.1441969786
 H       -10.9042427600       -1.2772738824        2.4100682348
 H       -11.4301626130       -2.3499967474        1.1361373678
 H       -15.6645016355        0.6401815392        3.1709298348
 H       -14.9788265433        1.8706624701        2.0718438357
 H       -14.1059962568        1.2232376369        4.9136679292
 H       -14.5487599319        2.7705479177        4.2943602949
 H       -11.1122754136        6.0175859294        3.7600297951
 H       -10.1145407651        5.7659938075        5.1955463843
 H       -11.9076479087        5.5258867370        5.1902962617
 H       -12.8863614878        2.2159079783        6.5259761146
 H       -12.9778874367        3.8147690742        5.8569629022
 H       -11.4758087026        3.2927942293        6.8518043674
 H        -9.6881005841        2.2662692592        5.7696389466
 H        -9.9764093863        1.2056185839        4.3153699364
 H       -10.7946714475        0.8918692491        5.8436895526
 H       -14.8644275933        1.1167078570        0.0599267378
 H       -13.5812126242        1.0839263160       -1.1135744011
 H       -13.5459757533        2.0602033926        0.3465917090
 H       -15.0314948282       -1.0706091210       -0.0865690988
 H       -13.9445392638       -2.1763867340        0.6643351883
 H       -13.5364182515       -1.5053943113       -0.8542389692
 H        -5.6370172990       -2.8845167049        1.3318518874
 H        -7.0839268809       -2.9348578059        0.3011180500
 H        -7.1925058460       -3.4311418948        1.9842693700
 H        -6.2939748625        0.0510174898        3.4093654580
 H        -5.1193998683       -1.1361670252        2.8002754564
 H        -6.3256847286       -1.6579365252        3.8861725726
 H        -5.3518884354        4.6940063780       -0.6085956568
 H        -6.4795687799        5.7121861756       -1.2233277002
 H        -6.1715593806        4.2367885782       -2.0571750240
 H        -7.8102736434        5.7246485076        1.1952513822
 H        -6.2970287605        4.9406405433        1.4019076731
 H        -7.8721197893        4.1223003130        1.9239933608
 H       -10.9325747604        9.1640609450       -0.1575322871
 H       -12.4159846764        8.4746058648        0.2150702653
 H       -12.2997825913        9.8607796318       -0.7917403204
 H       -13.8513091499        7.9156843655       -1.6812086060
 H       -13.2324829402        6.5299249045       -0.8087428502
 H       -13.3511172896        6.5362588408       -2.6228841889
 H        -8.5783310797       10.6676952901       -6.9826946797
 H        -9.7978187327        9.3856936794       -7.3930837277
 H        -8.3751352771        9.4669338225       -8.3133780255
 H        -8.7121081487        6.8684584881       -7.1164866350
 H        -7.2872475052        6.7127087303       -6.2036332070
 H        -7.1682881126        7.4449195554       -7.8506330633
 Na       -9.7184157402        1.9432413436        1.6681695666
