117

 C        -5.4049386718        8.6756201247       -5.5845949645
 C        -6.5671983459        9.4688334867       -6.1393990449
 O        -6.4991607219       10.6953292323       -6.2079652128
 C        -7.9137888292        8.7231442496       -6.4294493906
 C        -8.7293676906        8.6118983366       -5.0452002866
 O        -8.6056046978        7.6169655503       -4.3327644311
 C        -9.7836908772        9.6665710313       -4.6137278403
 C       -10.3871123258        9.5318205776       -3.2644227844
 C       -11.4030691143        8.4155810311       -3.0974386941
 O       -11.9778063630        8.0444578466       -4.1248762790
 C       -11.7786395828        7.7861372334       -1.6515270586
 C       -10.6502232511        6.7918800652       -1.2342871763
 O        -9.9226851072        7.1128663331       -0.3192270865
 C       -10.5352835983        5.4402146779       -1.9641000342
 C        -9.0814558390        4.9847583674       -1.9488942284
 C        -8.8311974382        4.0064194726       -0.7624283860
 O        -9.7774164195        3.4251930646       -0.2361689350
 C        -7.3295713491        3.9348655478       -0.2062469038
 C        -6.9681761640        2.4706810124        0.1744250435
 O        -7.7663991155        1.7516599181        0.7079192558
 C        -5.5562562750        2.0121881607       -0.0854479225
 C        -5.1095626285        0.7713665756        0.7024260293
 C        -6.0898721882       -0.4262448590        0.3891762210
 O        -6.1214991690       -0.8733238659       -0.7528288505
 C        -6.7887992861       -1.1486986266        1.5604718023
 C        -8.3885770478       -0.7008429612        1.7131121628
 O        -8.7452122947       -0.0321871467        2.6605866315
 C        -9.3795854648       -1.2985450693        0.7087249822
 C       -10.8180101381       -1.4199795658        1.2031688720
 C       -11.7779358825       -0.2836510103        0.6634392975
 O       -11.1575123439        0.6262285177        0.1325315539
 C       -13.3999776657       -0.1661059210        0.7523864403
 C       -13.8393201381       -0.0456424881        2.3039636082
 O       -13.4760143272       -0.9093774325        3.0807879625
 C       -14.5605976946        1.1747308322        2.8544852858
 C       -13.8811315801        1.7229007661        4.1090411077
 C       -12.4494146947        2.0142784149        3.7931800418
 O       -12.0468738752        1.7393965857        2.6714364958
 C       -11.5379520899        2.7150716290        4.8567954654
 C       -10.8291380511        3.8997125665        4.1951920904
 O        -9.9756959213        3.8341881903        3.3043152963
 C       -11.0261641667        5.3302244407        4.7849899404
 C       -12.2536076779        3.1458523406        6.2166831837
 C       -10.3692008883        1.6608330296        5.1554095703
 C       -13.8115078453        1.1125277060       -0.0044439738
 C       -14.0418584814       -1.4120577990        0.0452088286
 C        -6.6625887711       -2.6631293150        1.4119057121
 C        -6.2317183753       -0.8625566478        3.0116597928
 C        -6.2737385706        4.6449965325       -1.0215870827
 C        -7.4349272633        4.6774266196        1.1881040328
 C       -11.7830814959        8.9197336117       -0.6396287688
 C       -13.2607357611        7.1776910093       -1.7835490421
 C        -8.7771216898        9.5654445023       -7.4912945903
 C        -7.7210995698        7.2614819928       -6.8534322250
 H        -5.5995854007        8.1628773222       -4.6693127254
 H        -4.6054225435        9.4151486757       -5.4229240699
 H        -5.0107019141        8.0099018938       -6.3475988930
 H       -10.5220460034        9.6749710240       -5.4907049541
 H        -9.2685195600       10.6280618626       -4.6374819545
 H       -10.9504548276       10.4210891251       -2.8823040306
 H        -9.5826835414        9.3164315968       -2.5025474972
 H       -11.0447885470        5.6091335507       -2.9651365809
 H       -11.1953836612        4.6792229845       -1.4598109212
 H        -8.4490825062        5.8505430732       -1.6583261346
 H        -8.7706535618        4.6381784438       -2.8721225781
 H        -4.7175452704        2.7952625586        0.0349423045
 H        -5.5170464212        1.6729610911       -1.1039118135
 H        -5.1110938964        0.8545565143        1.7823483374
 H        -4.1041487100        0.6024697543        0.5126313403
 H        -9.0230784981       -2.1857905593        0.2351474807
 H        -9.3207841797       -0.5477311613       -0.0709702381
 H       -10.8316587818       -1.4364710585        2.2901447190
 H       -11.3277595310       -2.3865160338        0.9015949893
 H       -15.6381738476        0.8651723725        3.0299377368
 H       -14.6261497395        1.9515963533        2.1377790521
 H       -13.9908393874        1.1165030036        4.9636403662
 H       -14.3445104803        2.6893058133        4.4419095714
 H       -11.3776653834        6.1156230134        4.1507466453
 H       -10.0414830919        5.6030143127        5.1324400264
 H       -11.7232156398        5.2201074403        5.6348065043
 H       -12.7339860739        2.2624872578        6.6509308907
 H       -13.0413015639        3.8477800895        6.0104996484
 H       -11.4866933446        3.4959017392        6.8496162221
 H        -9.5687031438        2.1170806916        5.7496406152
 H       -10.0689121900        1.4041047561        4.1516990132
 H       -10.7392223047        0.7367027581        5.6319304382
 H       -14.8747809283        1.2281489281        0.0630815102
 H       -13.5811476822        1.1122991029       -1.0574431998
 H       -13.5129851125        2.0601108056        0.4033337420
 H       -15.0415274049       -1.2810587505       -0.3746163645
 H       -14.1152220290       -2.2888169500        0.7492280759
 H       -13.3830609476       -1.7490023129       -0.7255024933
 H        -5.6431199072       -2.9687655366        1.5136862560
 H        -7.1384581221       -3.0571512473        0.5087715164
 H        -7.2294809425       -3.0915235160        2.2813441424
 H        -6.3911854264        0.1563528768        3.3366638750
 H        -5.1513199447       -1.1579410223        3.0542010162
 H        -6.7013150649       -1.5386076328        3.7686857983
 H        -5.4349458793        4.9857571070       -0.3914062005
 H        -6.5789566077        5.5369793767       -1.5307482888
 H        -5.8749023407        3.9917489504       -1.8391455341
 H        -8.0867355660        5.5286645145        1.1010982611
 H        -6.4530765250        5.0222289337        1.3616989546
 H        -7.8875540731        4.0297049266        1.9211814899
 H       -10.7838793254        9.2085036495       -0.3359647189
 H       -12.3171270290        8.5966884634        0.2222482028
 H       -12.1922063962        9.8496186415       -1.0102459275
 H       -13.9183607262        8.0666015009       -1.8010555164
 H       -13.4733346062        6.5784737005       -0.9171660785
 H       -13.4365011808        6.6143498630       -2.7252141414
 H        -8.8215348426       10.6127732920       -7.1732661694
 H        -9.7637928601        9.1134972538       -7.6109612970
 H        -8.3410841287        9.5332353266       -8.4851899128
 H        -8.6892207665        6.8498876430       -6.9216167723
 H        -7.2894934765        6.7404427849       -6.0542634797
 H        -7.1861144668        7.1303719399       -7.7722347752
 Na       -9.7526170853        2.0153025430        1.6573415662
