117

 C        -5.4013988906        8.7769055985       -5.8482501779
 C        -6.6908869966        9.3236570043       -6.4008871158
 O        -6.8523625022       10.5350022843       -6.5793267924
 C        -7.8755646874        8.3379236669       -6.6516639225
 C        -8.5016782571        8.2445151152       -5.2518389594
 O        -8.1297791304        7.4367740542       -4.4114563326
 C        -9.5373598365        9.3352694777       -4.9679532967
 C       -10.0373020540        9.3449512322       -3.5306510329
 C       -11.0183360411        8.1306173117       -3.2792759133
 O       -11.2276111211        7.3233747739       -4.1770916383
 C       -11.5748898409        7.9326422614       -1.8221896785
 C       -10.7577491870        6.8120191935       -1.2825783103
 O       -10.1349126107        6.9469243825       -0.2629766907
 C       -10.6155294050        5.4231246226       -2.0461591748
 C        -9.0785415337        5.0868295935       -1.8785824798
 C        -8.8010802308        4.3206628644       -0.6440642769
 O        -9.6874927250        3.9134180868        0.0310879722
 C        -7.2190585125        4.2472588161       -0.0747441948
 C        -6.9664851472        2.7203054242        0.2351998716
 O        -7.7020367122        2.1095097183        1.0294723780
 C        -5.8543547608        1.8245748708       -0.4201814686
 C        -5.5462989119        0.6706192198        0.6352514990
 C        -6.6999379506       -0.3604353433        0.4976746514
 O        -7.0392347494       -0.7781778633       -0.6016804506
 C        -7.3228565353       -0.9951542270        1.8079998630
 C        -8.8547623414       -0.6314870072        1.6208666921
 O        -9.4772448565       -0.0371045036        2.5118191637
 C        -9.5653648172       -0.9202788389        0.2908634872
 C       -11.0138368229       -1.4066498568        0.3218449470
 C       -11.9152858259       -0.1977512011        0.3148381349
 O       -11.5217723978        0.8924881745       -0.0357197807
 C       -13.4122518836       -0.3480043946        0.8184626008
 C       -13.4323257455       -0.1398615823        2.3390185567
 O       -12.7214905500       -0.8739491979        2.9972913103
 C       -14.1914489329        1.0360155819        2.9519390863
 C       -13.5623001724        1.5138766209        4.2289741388
 C       -12.1963189929        2.0831203049        3.9823975038
 O       -11.7792922733        1.9504638076        2.8517178061
 C       -11.3189814842        2.6045410573        5.1756306564
 C       -10.7148179562        3.9982327264        4.6859597011
 O        -9.9307802401        3.9523702131        3.7637988474
 C       -10.9528064601        5.4273538682        5.2982336568
 C       -12.1224872885        2.7919146983        6.4594734030
 C       -10.2056945089        1.5507464956        5.5129833670
 C       -14.1571306184        0.7309886555        0.1058209684
 C       -13.9969165991       -1.7158908661        0.4134487271
 C        -7.2230215704       -2.5751686049        1.7765707172
 C        -6.7044946409       -0.4602871491        3.1099304318
 C        -6.1208882126        4.8139971599       -0.9975441988
 C        -7.2605034032        5.0975961335        1.2536115026
 C       -11.4389648702        9.2246723305       -0.8754525954
 C       -13.0502239280        7.4961397182       -1.9477261340
 C        -8.8678436463        8.8870182996       -7.6705407640
 C        -7.3796331919        6.9987085314       -7.1612847993
 H        -4.7768841322        8.6917333842       -6.7146869196
 H        -5.4741423791        7.8094222489       -5.2922464764
 H        -4.9790511445        9.4900717568       -5.1141596234
 H       -10.1982486943        9.4356770469       -5.7770458856
 H        -8.9677147417       10.2905747813       -5.0354665561
 H       -10.5505955773       10.2891647608       -3.3826453876
 H        -9.2005899987        9.2082227975       -2.8674585422
 H       -10.9389487895        5.5246298284       -3.0828960987
 H       -11.2711608715        4.6537083046       -1.5112241336
 H        -8.3723101119        5.9237863519       -1.9191285473
 H        -8.7476079299        4.4561966824       -2.7315192239
 H        -5.0278860140        2.3920189618       -0.6211129559
 H        -6.1197810385        1.3429304306       -1.3799600048
 H        -5.4114562724        1.0209288000        1.6380844006
 H        -4.7518170841       -0.0085549242        0.3379102517
 H        -9.0484852549       -1.7369085102       -0.1639421122
 H        -9.5685165214       -0.0992515874       -0.3645365700
 H       -11.3202102465       -2.0329290938        1.1453359582
 H       -11.1168344996       -1.8587680290       -0.6361877815
 H       -15.1874572316        0.8495848829        3.1364583048
 H       -14.1339325317        1.8333973058        2.2368825747
 H       -13.3801512995        0.7251298221        4.9498930538
 H       -14.2234157425        2.2064717090        4.6881851110
 H       -12.0424688761        5.4345476605        5.5911160291
 H       -10.7557238299        6.1774739873        4.5509954372
 H       -10.2658539838        5.6336377401        6.1179583198
 H       -12.2981457952        1.9209843893        7.0085999007
 H       -13.0126346048        3.3160799922        6.1785568743
 H       -11.6317387839        3.5024255400        7.0962916490
 H        -9.3452209071        2.0425148012        5.9943250932
 H        -9.8184642126        0.9597743710        4.6651988190
 H       -10.6653251677        0.9792791932        6.3190529181
 H       -15.1640484266        0.9554054820        0.3846995271
 H       -14.2671825057        0.5827265453       -0.9644875501
 H       -13.6102953213        1.6574840305        0.1429677889
 H       -15.1091700292       -1.5617323446        0.2779444909
 H       -13.9483428496       -2.5315673965        1.0860845921
 H       -13.6558225938       -2.1842221791       -0.5797253793
 H        -6.1716743242       -2.8187424394        1.9826084671
 H        -7.3953538902       -3.0701879926        0.8237915923
 H        -7.7220970266       -3.0077292531        2.6281106687
 H        -6.6041765134        0.6614641831        3.1299748952
 H        -5.6908043345       -0.7537768019        3.1392294827
 H        -7.3072190106       -0.9284562752        3.9136970656
 H        -5.1763229831        4.4096583383       -0.6455767454
 H        -6.0791134161        5.9363149218       -1.1067693466
 H        -6.1504410409        4.3948075309       -2.0493363680
 H        -7.7737840179        5.9935187425        1.0289561761
 H        -6.2473267627        5.2523046025        1.5802571719
 H        -7.7616532577        4.4777799521        2.0016225861
 H       -10.3912550873        9.2792986818       -0.5326282050
 H       -12.0554046122        9.2828675041        0.0088393643
 H       -11.7800485364       10.0956423968       -1.4955883640
 H       -13.6385799510        8.3699174245       -2.1277079869
 H       -13.4207192156        7.0061229024       -0.9801929745
 H       -13.1545793714        6.8463769825       -2.8151674672
 H        -8.9347278430        9.9696173754       -7.7163538312
 H        -9.8313682494        8.5197748857       -7.3658370387
 H        -8.6006546596        8.5607191938       -8.6746365450
 H        -8.2017700368        6.3461221173       -7.3517076006
 H        -6.6944479473        6.5368647387       -6.5297070588
 H        -6.9031672319        7.0829921213       -8.1041631810
 Na       -9.8655456279        2.3498022126        1.9082824745
