117

 C        -5.3972343749        8.7648799870       -5.6718363330
 C        -6.6734797755        9.3608797675       -6.2485451926
 O        -6.7403676866       10.5773215260       -6.4157853910
 C        -7.9615299341        8.4664467868       -6.6243782540
 C        -8.6012789282        8.4890786079       -5.2079469748
 O        -8.2884258221        7.6417884164       -4.3769057606
 C        -9.6299573339        9.5591434937       -4.8542006434
 C       -10.1062600196        9.4731089994       -3.4086593859
 C       -11.1437604668        8.3055258049       -3.2154279907
 O       -11.6025192032        7.5984200472       -4.1239601621
 C       -11.6651648417        7.9834033728       -1.7659655557
 C       -10.7322505185        6.8913286504       -1.0441893048
 O       -10.1128041220        6.9599519181       -0.0085641949
 C       -10.5419073087        5.5620866047       -1.9602963751
 C        -9.1668541125        4.9038813707       -1.9782384509
 C        -8.9016554037        4.0124253666       -0.6823441994
 O        -9.8704035997        3.4977481439       -0.1829195987
 C        -7.3947396164        3.9862037120       -0.0752936346
 C        -6.9435491777        2.5539455485        0.2715407331
 O        -7.6995147167        1.8540097237        0.9068972306
 C        -5.6275274660        1.9078114069       -0.2420766688
 C        -5.2766702504        0.6705580975        0.6239030296
 C        -6.2656402957       -0.4951789141        0.4640856578
 O        -6.4628923422       -0.9619231922       -0.6432166159
 C        -7.1344601957       -1.0620210237        1.6759598305
 C        -8.6256804270       -0.6837151546        1.5195770200
 O        -9.1223551540        0.0833794939        2.3629314240
 C        -9.4428686171       -1.3145918690        0.4413754259
 C       -10.8968349742       -1.2619335273        0.8934457308
 C       -11.7042042131       -0.0270310778        0.5344098259
 O       -11.1975500770        1.0050511062        0.1148055158
 C       -13.3343404946       -0.1441635311        0.6288535438
 C       -13.5667671943       -0.0047209170        2.2875459218
 O       -13.2163415152       -0.9850450097        2.9076978210
 C       -14.3520650093        1.1555549295        2.9633083802
 C       -13.7218456867        1.5695482606        4.2663879700
 C       -12.2662151028        2.0151627552        3.9767572310
 O       -11.8792406021        1.8880982387        2.8331522169
 C       -11.3478842441        2.6906278163        5.0841076305
 C       -10.7234361953        4.0449957562        4.4556914043
 O        -9.9572938880        3.7997282426        3.5280458849
 C       -10.9473080825        5.4574944828        5.0125951900
 C       -12.1284203124        2.9453939685        6.3254859374
 C       -10.2376786825        1.6848188659        5.3897676435
 C       -14.1793686502        0.8243294720       -0.2026020060
 C       -13.8676611740       -1.6033251740        0.3628251688
 C        -6.9012798820       -2.5665417544        1.6098906018
 C        -6.6447221520       -0.6838105867        3.1299090486
 C        -6.3429575079        4.7370483646       -0.9591971917
 C        -7.3514084631        4.7892958163        1.2227135773
 C       -11.8660577537        9.2178769763       -0.7876994105
 C       -13.0525478774        7.2932747615       -1.8250216444
 C        -8.7472137629        9.2646893859       -7.6573657091
 C        -7.5522743351        7.0115452491       -7.0971681723
 H        -4.7083697272        9.4856036288       -5.2857723301
 H        -4.8595847313        8.1202824183       -6.4240354657
 H        -5.7143983333        7.9923209945       -4.9358626243
 H       -10.4469517694        9.5589377589       -5.6029399925
 H        -9.1549228757       10.5029113711       -5.0603708962
 H       -10.7095435688       10.3670256958       -3.1741318171
 H        -9.3893834709        9.2881536802       -2.6261158080
 H       -10.7839661889        5.8417699046       -2.9338494693
 H       -11.3106723395        4.8937573730       -1.6671431018
 H        -8.3571142386        5.6825665465       -2.2183703916
 H        -9.1612633960        4.2292749875       -2.8399798805
 H        -4.7519487717        2.5822690812       -0.1622637353
 H        -5.7648056672        1.7203575203       -1.3259736859
 H        -5.2170804996        0.9723372160        1.7332378226
 H        -4.2459416444        0.2384964431        0.4316539829
 H        -9.1740569471       -2.4026441227        0.1918245162
 H        -9.1936510720       -0.7111669365       -0.5189836658
 H       -11.0680154675       -1.4147198991        1.9801212205
 H       -11.3950620496       -2.1281786050        0.3322581878
 H       -15.4516103169        0.8903926642        3.1402736035
 H       -14.3608771130        1.9952947799        2.2390694565
 H       -13.7921710954        0.8081691130        5.0581512239
 H       -14.3105054990        2.4640998412        4.7199914931
 H       -11.9272846002        5.7855569169        4.6107129217
 H       -10.2253305827        6.0602408644        4.5333474372
 H       -10.9551067562        5.5008409835        6.1143037354
 H       -12.6318346634        1.9700043741        6.5200392917
 H       -12.8463426947        3.8040113491        6.2135557906
 H       -11.4706614769        3.2095905106        7.1624457484
 H        -9.8394908661        1.9337158576        6.3695839581
 H        -9.4952802697        1.6618930060        4.6156412333
 H       -10.7036330987        0.7079641072        5.5167495051
 H       -15.2513924735        0.7022951931       -0.0532664044
 H       -14.0445038564        0.6689004150       -1.2941132435
 H       -14.1086253088        1.9054419998       -0.0257597957
 H       -14.9043891141       -1.7158989164        0.6515192439
 H       -13.4028160190       -2.4055477536        0.8931365540
 H       -13.7183881062       -1.8304830852       -0.6928101140
 H        -5.9818515927       -2.8480704166        2.0705615964
 H        -6.9069296982       -2.8825224115        0.5623880724
 H        -7.6458383105       -3.1056126526        2.2194858478
 H        -6.9134663807        0.3388666429        3.2995919748
 H        -5.6014287187       -0.7067782147        3.2688610664
 H        -7.1439643478       -1.3897103071        3.8327830572
 H        -5.3647519349        4.6266903658       -0.5836639896
 H        -6.5955888224        5.7683449960       -0.9459307869
 H        -6.2763433714        4.5089801674       -2.0206862200
 H        -7.4316343888        5.8505517846        0.9863056639
 H        -6.4505666411        4.5000569553        1.7795488194
 H        -8.3171721883        4.5432077777        1.7293902132
 H       -11.0304039425        9.9427598138       -0.8006915067
 H       -11.9474134001        8.8688656060        0.2057638864
 H       -12.7611642343        9.8386158385       -1.0132428479
 H       -13.7168367331        7.8837518790       -2.3942561623
 H       -13.3740094609        7.1609699887       -0.7859839216
 H       -13.0035036846        6.3399411839       -2.3343155875
 H        -8.9120360413       10.2655024285       -7.2435815363
 H        -9.6849538819        8.8168110495       -7.9847045816
 H        -8.0835508565        9.5241232624       -8.4714882479
 H        -8.3153753547        6.5260612608       -7.7971705663
 H        -7.3285356053        6.3307187699       -6.2540362980
 H        -6.5956137167        7.1213708652       -7.7199715277
 Na       -9.9081746392        2.2215661142        1.7005216256
