117

 C        -5.1110330371        8.9295674824       -7.2646760376
 C        -6.6371503621        8.9483053364       -7.1307497311
 O        -7.0970696446       10.0578922240       -7.1733686916
 C        -7.4050685567        7.5921732821       -6.8616289958
 C        -8.0216974003        7.8586868029       -5.4069898705
 O        -7.5777281349        7.1788376659       -4.5154447837
 C        -9.0511468143        9.0262973573       -5.2733962201
 C        -9.7031252826        9.2210915700       -3.8876006186
 C       -10.9293128468        8.2905162161       -3.6519026114
 O       -11.5167841783        7.6623201979       -4.5293131008
 C       -11.2997757862        7.9166622218       -2.1495120605
 C       -10.1233532073        6.9074363622       -1.8966012683
 O        -9.1072170038        7.2766578560       -1.3076797622
 C       -10.2395790443        5.5980574441       -2.5618196963
 C        -8.9972757559        4.6881770951       -2.2717212287
 C        -8.8653162868        4.3227610613       -0.7726064875
 O        -9.8525526501        3.8982683239       -0.2383817687
 C        -7.4751724759        4.4777589636       -0.0324866896
 C        -7.1796583538        3.0118560478        0.5721796314
 O        -7.9413935452        2.4520400772        1.3522311158
 C        -5.7402958289        2.4476850209        0.4320860489
 C        -5.5905767416        1.0355082410        0.9340767191
 C        -6.7583587739        0.1684724293        0.4778114186
 O        -7.0977940313        0.1332171097       -0.6832790114
 C        -7.5153772946       -0.8652609789        1.4890503775
 C        -8.9878250590       -0.3791584241        1.5270636121
 O        -9.4432039513        0.3529323423        2.4283535813
 C        -9.8944073950       -0.8440841644        0.3775599049
 C       -11.3690727735       -1.0651644125        0.8313886823
 C       -12.2198320323        0.1775612928        0.9182600584
 O       -11.9191724653        1.3524232726        0.8059774035
 C       -13.7347742611       -0.0986333692        1.2570654336
 C       -13.7972325225       -0.2681941384        2.8151436159
 O       -13.2195733069       -1.1639423265        3.3763807669
 C       -14.4667609100        0.7311567235        3.6946251416
 C       -13.5759269808        1.1996260339        4.8374774208
 C       -12.4231812384        2.0932938811        4.3784426345
 O       -12.3976849935        2.5399016178        3.2471570685
 C       -11.1964925916        2.3841123364        5.4059705463
 C       -10.4830115431        3.7155552187        5.0028015876
 O       -10.0261866226        3.7733652030        3.8781177910
 C       -10.4896504415        4.8708121174        6.0254443487
 C       -11.7370382740        2.2562137330        6.8638206294
 C       -10.2242128056        1.1821569848        5.3039879520
 C       -14.5797727650        1.1942848810        0.9217983575
 C       -14.3768810474       -1.3652058326        0.6974320599
 C        -7.4298693156       -2.3163493803        0.8316082256
 C        -6.9809652967       -0.9276991051        2.9222541165
 C        -6.3545683953        4.9965280704       -0.9233481734
 C        -7.6166524547        5.3550317402        1.2231825570
 C       -11.2227697024        9.1594750803       -1.2178273532
 C       -12.7188210390        7.2537466203       -2.0861425605
 C        -8.4643762740        7.3017209271       -7.9724074859
 C        -6.4793905657        6.3794406728       -6.8035381862
 H        -4.7782927821        9.7347628135       -7.8755940486
 H        -4.5555116827        8.0610170314       -7.7410359501
 H        -4.7909607836        8.9818282304       -6.2293786146
 H        -9.8087456293        8.8378430132       -5.9618742205
 H        -8.5055314620        9.9464136768       -5.6009421805
 H       -10.1392517354       10.1950321596       -3.9321559449
 H        -9.0717636650        9.2498154577       -3.0343389194
 H       -10.4028326235        5.7561590064       -3.5965366002
 H       -11.1399325796        5.1767868399       -2.1519939001
 H        -8.0922475353        5.2522296486       -2.5779389369
 H        -9.0312368962        3.7300429604       -2.8737666017
 H        -5.1087881877        3.0744375010        0.9944303105
 H        -5.3567445201        2.5178114268       -0.6307141882
 H        -5.4965291325        0.9797728807        2.0445624981
 H        -4.6650604565        0.4862956742        0.5489121381
 H        -9.4918559282       -1.7586711433       -0.1913423689
 H        -9.8122775395        0.0255285686       -0.3965464656
 H       -11.4359331272       -1.7098298312        1.7474187404
 H       -11.8941826101       -1.7068045070        0.1143524385
 H       -15.3592594846        0.2166199495        4.1324802609
 H       -14.8878806634        1.6012082337        3.1362270467
 H       -13.0003986760        0.3273686095        5.3156348577
 H       -14.1891213009        1.7157866703        5.5584971733
 H       -11.3860356255        4.6659607564        6.6716955091
 H       -10.5699488727        5.8067111788        5.5103525185
 H        -9.6247542505        4.7753191788        6.6952409381
 H       -12.2233590987        1.3280648845        6.9824970388
 H       -12.4527295985        3.0217082708        7.1695599752
 H       -10.9917310047        2.3003506293        7.6221740150
 H        -9.9036602842        0.8494540355        6.3055126316
 H        -9.3673398090        1.4048630675        4.6775864573
 H       -10.6245808729        0.2915482931        4.7867904423
 H       -15.5438538066        1.0918758063        1.3707739755
 H       -14.7093420113        1.4176968993       -0.1393916914
 H       -14.2027071144        2.0603163226        1.4354372624
 H       -15.4886221472       -1.2520951520        0.7559309990
 H       -14.1108001300       -2.3402416893        1.2819316082
 H       -14.0440328189       -1.4443916144       -0.3519376986
 H        -6.4674958107       -2.7586330025        1.1193201511
 H        -7.5027896266       -2.4726390444       -0.2474795026
 H        -8.1209614114       -2.9987443586        1.2968434108
 H        -7.0624133520        0.0781983841        3.4044674750
 H        -6.0210264800       -1.4177018482        2.9828210235
 H        -7.6641917775       -1.6245868142        3.4856677078
 H        -5.4112202625        5.0748909981       -0.4133942478
 H        -6.7808156247        5.9315156820       -1.3468393269
 H        -6.2361159964        4.3228355647       -1.8272523191
 H        -7.5091471877        6.3500325489        0.8912214628
 H        -6.8406676724        5.0992092118        1.9149704740
 H        -8.6156719048        5.2483382209        1.6393731392
 H       -10.2167679277        9.6024341421       -1.3233049331
 H       -11.3122079588        8.7301739173       -0.2502308992
 H       -11.9438924835        9.9754088437       -1.4849783413
 H       -13.4884468695        7.9263524881       -2.3963887879
 H       -12.9108912519        7.0472977615       -0.9823019137
 H       -12.8748699436        6.2808433421       -2.5419079463
 H        -9.2751493860        8.0024170539       -8.1359683274
 H        -8.8568884894        6.3066694621       -7.7916155153
 H        -7.9838276598        7.2938717035       -8.9487630065
 H        -6.9956520956        5.4551093424       -6.6439302883
 H        -5.7514694927        6.4639822959       -6.0723378669
 H        -5.9935153840        6.1550230452       -7.7219802477
 Na      -10.2309918373        2.6319586958        1.8948895354
