117

 C        -5.0275527490        8.7434393178       -7.6527708270
 C        -6.4838217859        8.8019290358       -7.2956761223
 O        -7.1846727446        9.7555974543       -7.5554528958
 C        -7.2087779325        7.4980203437       -6.8150311328
 C        -8.0060034117        7.8081302855       -5.4280159148
 O        -7.6945429913        7.3937721318       -4.3318949086
 C        -9.2123966624        8.7652366053       -5.5904409365
 C        -9.6474983509        9.2247385446       -4.1891840365
 C       -10.8901937781        8.3906600925       -3.7946500449
 O       -11.6676879824        8.0853868764       -4.7140545123
 C       -11.1157407132        7.8634074763       -2.3737759137
 C        -9.9324303888        6.8697330392       -2.0294540626
 O        -9.0627670768        7.1848580648       -1.2234554003
 C        -9.9987845041        5.4882744292       -2.7720846568
 C        -8.9456675637        4.4643106362       -2.2489656387
 C        -8.9754720169        4.2098872303       -0.7868250014
 O        -9.9468916364        3.8278754376       -0.1835360101
 C        -7.7088243289        4.5722646208        0.1165225175
 C        -7.2476744072        3.1547084341        0.6711211528
 O        -8.0221657180        2.4783909180        1.3249152388
 C        -5.8926039980        2.5188637316        0.4428085547
 C        -5.8565767331        1.1359802354        1.2636349390
 C        -6.8159888333        0.1840881605        0.5938965038
 O        -7.2238119645        0.3161403639       -0.5547127889
 C        -7.5290469325       -1.0791947965        1.4319955009
 C        -8.9480586245       -0.5384275065        1.6256759640
 O        -9.1613841094        0.1063221518        2.6651761442
 C        -9.9971423697       -0.5427252305        0.5433636491
 C       -11.4839125972       -0.8317598003        0.9772846016
 C       -12.4268987705        0.3328529750        0.8938588950
 O       -12.0646549181        1.4775287018        0.7673641062
 C       -13.9468210134        0.0819999327        1.2869920464
 C       -13.8469409189       -0.0482522350        2.8142555050
 O       -13.2419982816       -1.0263682351        3.1987179014
 C       -14.5155462696        0.9184887822        3.8801784641
 C       -13.5541249010        1.2189667971        5.0288082586
 C       -12.3049859190        2.0219035513        4.5243552953
 O       -12.2287939009        2.1557662156        3.3134506495
 C       -11.0722069118        2.3450355223        5.5750813658
 C       -10.3398270562        3.6526977158        5.1200305602
 O        -9.9525304390        3.8135284148        3.9697487177
 C       -10.3215970667        4.7521562576        6.1902758698
 C       -11.5774075352        2.3859086493        7.0787037896
 C       -10.0368001521        1.2329717344        5.4582465807
 C       -14.8155813724        1.2514080799        0.8041511377
 C       -14.4778845238       -1.2420474485        0.6199154276
 C        -7.3821658387       -2.3231034087        0.5106433556
 C        -6.7670265710       -1.1913976956        2.7912809235
 C        -6.5685641295        5.1408217086       -0.7494749250
 C        -8.2949155632        5.4657950848        1.2244825328
 C       -10.9713757713        9.1365437591       -1.4042857660
 C       -12.5072568166        7.2692113803       -2.2396012040
 C        -8.2623554785        7.1628631509       -7.8935060060
 C        -6.2468901385        6.3069521876       -6.6636618181
 H        -4.8004778143        9.6208407602       -8.1916810069
 H        -4.7650047632        7.9245665716       -8.3591371394
 H        -4.3700763804        8.6289293849       -6.8046410979
 H       -10.0469940878        8.2626420114       -6.1246075426
 H        -8.7822634348        9.6289488240       -6.1604254121
 H        -9.8571080437       10.3164291845       -4.2062269975
 H        -8.8183114490        9.1413908379       -3.4240777502
 H        -9.8253272834        5.6387304335       -3.8875175017
 H       -11.0636669962        5.1501754945       -2.6412904383
 H        -7.9971389954        4.8185407314       -2.5407714252
 H        -9.1450614053        3.4403810165       -2.7027961349
 H        -5.0605118858        3.0845730400        0.7767499720
 H        -5.7611780532        2.3748530920       -0.6309681681
 H        -6.0990531900        1.2237680189        2.2700580685
 H        -4.8165273392        0.7349786065        1.3174640700
 H        -9.6591169910       -1.0766690782       -0.3089154288
 H       -10.0457793281        0.4507056772        0.1661348871
 H       -11.5896706772       -1.2139852517        1.9764675183
 H       -11.9071850894       -1.6235062111        0.4194325419
 H       -15.3376316128        0.4134116959        4.2347655776
 H       -14.9236715298        1.7768615673        3.3584882829
 H       -13.1303502031        0.2532214984        5.3265059122
 H       -13.9706963177        1.7114401213        5.8523264467
 H       -11.3814537619        5.0411728639        6.4454380399
 H        -9.8926201814        5.6419655497        5.8019080813
 H        -9.9413427485        4.3093788801        7.0778242705
 H       -11.7138221811        1.3794239792        7.4241953579
 H       -12.5027808402        2.9979740724        7.1854414670
 H       -10.9315625142        2.8262191999        7.8910026098
 H        -9.2727610935        1.2943156615        6.2381570924
 H        -9.5709900701        1.1688535408        4.4790929591
 H       -10.4611717631        0.2561729900        5.6526770157
 H       -15.8378229462        1.2870578314        1.2501405589
 H       -14.9346398435        1.2370706264       -0.2853675405
 H       -14.3147116861        2.1854555447        1.1068662511
 H       -15.4989354844       -1.2312905687        0.8416583994
 H       -14.0204021855       -2.1025127665        1.0953510847
 H       -14.2901888355       -1.2136276460       -0.4304437784
 H        -6.3484780406       -2.5394323840        0.1673224115
 H        -7.7726096320       -2.0587598638       -0.4702500565
 H        -7.7859470562       -3.2563740987        0.8213790042
 H        -7.0376089922       -0.3622043956        3.4922444747
 H        -5.7386905490       -0.9738084217        2.5798159762
 H        -6.8713199088       -2.1516641136        3.2269500489
 H        -5.7091598228        5.0525513236       -0.1440632190
 H        -6.7844171792        6.1294843054       -1.1499479025
 H        -6.3313957200        4.5223648438       -1.5732501555
 H        -9.0137815244        6.1528577764        0.7817799951
 H        -7.4511341327        5.9858587101        1.7384682581
 H        -8.7750575560        4.8148113909        1.9974099403
 H       -10.1732533999        9.7373514835       -1.7808830917
 H       -10.8567333981        8.9577274498       -0.3574419967
 H       -11.8801936058        9.6622135372       -1.6844475552
 H       -13.2222326991        8.0713797013       -2.3002329889
 H       -12.6073948548        6.8399772236       -1.2279027970
 H       -12.8260211185        6.5087464857       -2.9212644049
 H        -8.6795307041        8.0179315580       -8.4059852438
 H        -9.1117066637        6.6722496176       -7.4163622358
 H        -7.8061309472        6.5689369461       -8.7043992337
 H        -6.7650983174        5.3824296182       -6.2916427138
 H        -5.3143601538        6.4785344445       -6.0972066275
 H        -5.8993073026        5.9504923947       -7.6632785255
 Na      -10.2561841689        2.5359936655        1.9795244551
