117

 C        -4.7049285669        7.1838369534       -7.9955062671
 C        -6.1870793113        7.1913156843       -8.0127514684
 O        -6.8027163943        8.0920887220       -8.5930526550
 C        -7.0516857783        6.0519819034       -7.2729217290
 C        -7.4252510245        6.8646731212       -5.9157763875
 O        -6.8712149604        6.6792346694       -4.8491614430
 C        -8.5101706259        8.0098135402       -6.0098171935
 C        -9.0773944053        8.2508921623       -4.6088784047
 C       -10.3644073832        7.4305566836       -4.3190161995
 O       -10.6669713557        6.5347834224       -5.0757640319
 C       -11.1318229950        7.5411944885       -2.9889899784
 C       -10.1857356636        6.7396455051       -2.1101544979
 O        -9.3643217559        7.3413282927       -1.4041377866
 C       -10.1459059306        5.2096634273       -2.1533623105
 C        -8.8667844708        4.7978269800       -1.4818178781
 C        -8.9632495064        4.6915545327        0.0670974364
 O        -9.9516085302        4.1750473130        0.5672041205
 C        -7.6961753585        4.8666082920        0.9554256607
 C        -7.2617155961        3.4357554804        1.3946656658
 O        -7.9688473050        2.7947118393        2.1563255482
 C        -5.9913287441        2.7591539929        0.7771263207
 C        -5.9643310160        1.2965649321        0.7475490506
 C        -7.0758387588        0.7780475393       -0.2789454747
 O        -7.3191065808        1.4089270150       -1.2918835361
 C        -7.8642101953       -0.5776199373        0.0200323369
 C        -9.2403767644        0.0262895222        0.7389497112
 O        -9.1505447093        0.3368581495        1.9253057220
 C       -10.5035734504        0.5624335794        0.0393705466
 C       -11.8132360327        0.0727618383        0.5321410369
 C       -12.6539142553        1.1204860580        1.3433809110
 O       -12.3090071927        2.2377114496        1.6514660170
 C       -14.2755298381        0.8332217777        1.8273288715
 C       -14.1989812343        0.9849067658        3.3738560270
 O       -14.2736280567        0.0065312762        4.0714828509
 C       -14.0022021772        2.3338581274        4.0915693666
 C       -13.2885524307        2.0561466537        5.4027287576
 C       -11.7951634789        1.6495026202        5.1448713831
 O       -11.4420087990        1.1928471630        4.0624355023
 C       -10.8458971298        2.3702207137        6.1962806477
 C       -10.8053060876        3.8372318567        5.5965826245
 O       -10.4007117730        3.9961208169        4.4654913202
 C       -11.3937441901        4.9924653695        6.4556631188
 C       -11.2779493603        2.1216644699        7.7197748467
 C        -9.4382521938        1.7539657300        6.0318766250
 C       -15.2161383135        1.7451397162        1.0155353834
 C       -14.8094616841       -0.5703125250        1.5501700892
 C        -8.1199385229       -1.4140826971       -1.2829014516
 C        -7.1727775305       -1.4541072372        1.0394581208
 C        -6.5893482446        5.6243360787        0.2954039643
 C        -8.2003446307        5.6034729108        2.2198779733
 C       -11.0938480655        9.0657177683       -2.5358486871
 C       -12.4978800420        6.8524022984       -3.1517587575
 C        -8.3223300093        5.7614089627       -8.1089119028
 C        -6.2371501694        4.7582824424       -6.9255220972
 H        -4.3334369932        7.9262354613       -8.6784084595
 H        -4.2868454968        6.3162506996       -8.4671043141
 H        -4.1262858923        7.2628611008       -7.1333676227
 H        -9.2837340939        7.7246637377       -6.7589261568
 H        -8.0547040346        8.7767378117       -6.5761580658
 H        -9.2768659259        9.2838969204       -4.4712872382
 H        -8.3518228766        7.9553960896       -3.9117530828
 H       -10.0860601824        4.7989814903       -3.1509814397
 H       -10.9467566656        4.7347740378       -1.6572786116
 H        -8.0613892001        5.5306325102       -1.6810091610
 H        -8.5559087128        3.8631887178       -1.7607386402
 H        -5.2112216264        3.2339371374        1.4840623588
 H        -5.5975083498        3.2243764487       -0.1551247314
 H        -6.2713272568        0.9924540553        1.6913654154
 H        -4.9577101843        0.8122122426        0.6285806967
 H       -10.4142807726        0.5176028289       -1.0677575052
 H       -10.4098008850        1.7165643168        0.1539073931
 H       -11.5936623260       -0.9053985579        1.1691814788
 H       -12.4549890438       -0.4249510725       -0.2782684361
 H       -14.9247007104        2.9522690014        4.2205064925
 H       -13.3368299222        3.0564338538        3.4850774518
 H       -13.7927726095        1.2581403881        6.0087102166
 H       -13.2360461374        3.0100472709        6.0092482021
 H       -12.4985377265        4.7818390694        6.4758693024
 H       -11.3380320830        5.9505579706        5.9862630265
 H       -10.9849862499        4.7775086547        7.4097721127
 H       -10.9134336531        1.1320874467        8.0345175467
 H       -12.3927538252        2.1310818976        7.7990452424
 H       -10.7487086544        2.9048609366        8.3261405508
 H        -8.6366530453        2.2481900329        6.5809475760
 H        -9.1193661871        1.8674466577        5.0212643979
 H        -9.3968372551        0.6781394368        6.1989598797
 H       -16.1321642836        1.8058790226        1.6257367775
 H       -15.5085995279        1.3255125368        0.0509454460
 H       -14.7178458826        2.7024043154        0.8074483309
 H       -15.6700650681       -0.8182051024        2.2488864316
 H       -14.0252828484       -1.3488232534        1.5120022969
 H       -15.3824053141       -0.6710095737        0.6081109424
 H        -7.5192245907       -2.3459441266       -1.2560389342
 H        -7.9772171514       -0.7610935307       -2.1511685955
 H        -9.1084441507       -1.8056546665       -1.2552928541
 H        -7.4215668840       -1.0747714105        2.0528896095
 H        -6.1226541283       -1.3664699635        0.8489561727
 H        -7.4721970237       -2.5000228932        1.0332998193
 H        -5.8355873198        5.7159796081        1.0002323866
 H        -6.8975315318        6.6377040174        0.1571817858
 H        -6.1653803523        5.1988216220       -0.6056694594
 H        -7.3773976369        6.2185285021        2.5947449060
 H        -8.5805567420        5.0089037437        3.0795362671
 H        -9.0563496711        6.3040435323        2.0032702326
 H       -10.1106867827        9.4347246329       -2.5852428649
 H       -11.3711085191        9.1202288942       -1.5431600800
 H       -11.8185294298        9.6670712479       -3.0195450921
 H       -13.0298589031        7.2449454487       -3.9868423480
 H       -13.0817401073        7.1678446945       -2.2510959249
 H       -12.4677649604        5.7644398299       -3.2273394163
 H        -8.1798668568        6.2758670760       -9.0372713915
 H        -9.2977413206        6.0398075931       -7.7231246256
 H        -8.4279234329        4.6763086602       -8.2834861984
 H        -6.7973177001        3.8840596098       -7.3644769443
 H        -6.1662174782        4.5782508821       -5.8319394439
 H        -5.2076571511        4.7765387032       -7.3808564952
 Na      -10.1807717968        2.6971989749        2.6035510194
