117

 C        -4.7363976654        7.8284027687       -8.2456632715
 C        -6.2810798471        7.7981183706       -7.9972484152
 O        -6.9652529726        8.7142121817       -8.3387013343
 C        -7.0552764697        6.6461456427       -7.2016481135
 C        -7.6768678996        7.3338230027       -5.9440309441
 O        -7.4574379550        6.8998095066       -4.8349919308
 C        -8.6226239549        8.5251462846       -6.0609048577
 C        -9.3408465650        8.8249342713       -4.7361762346
 C       -10.4270735191        7.8371915877       -4.3149704425
 O       -10.7781440837        6.9636386810       -5.0578077937
 C       -11.0216446061        7.8422188917       -2.7831916228
 C       -10.1192709103        6.8735297324       -1.9278980275
 O        -9.4943219679        7.3297191075       -0.9729020452
 C       -10.2746927990        5.3250984917       -2.1395535418
 C        -8.9039515811        4.6675762205       -1.6571861249
 C        -8.8237241416        4.4823053487       -0.1128243700
 O        -9.7361224652        3.9747846286        0.5118465598
 C        -7.5258913427        4.8726661295        0.7885661508
 C        -7.0292043518        3.4291159792        1.2485228844
 O        -7.4477461331        2.9214679429        2.2650017231
 C        -5.9707508196        2.7487856422        0.4352953227
 C        -6.0085314756        1.2173582384        0.6496012131
 C        -7.1018604414        0.4766593715       -0.0995552063
 O        -7.6198873209        0.9293570057       -1.0839330666
 C        -7.7277186697       -0.7615252367        0.6572928577
 C        -9.0722648444       -0.0472020679        1.2097089503
 O        -8.9888348426        0.5423271198        2.2633091223
 C       -10.4273714272       -0.0138014766        0.4398677902
 C       -11.7256249911       -0.3995684886        1.2093838453
 C       -12.7415157414        0.7263146606        1.3096951268
 O       -12.4143943504        1.8823830621        1.2090142476
 C       -14.3264888193        0.3804644714        1.6222773227
 C       -14.3962448808        0.4069451850        3.2261211507
 O       -14.4742805158       -0.6684687347        3.8112604334
 C       -14.3740895718        1.7204021083        4.0147508613
 C       -13.4882883449        1.6203402474        5.2430839724
 C       -11.9881856917        1.7298746573        4.8859354217
 O       -11.6463892953        1.2280890253        3.8311985189
 C       -10.9762138042        2.3179158416        5.8086996406
 C       -10.6078110179        3.7432519859        5.3467580923
 O       -10.6027170748        4.0357154671        4.1728694626
 C       -10.2176672656        4.7292410372        6.4702292085
 C       -11.6010790969        2.2453450852        7.2579202232
 C        -9.6562381553        1.5255885790        5.6905679940
 C       -15.1758435242        1.4117838613        0.9724169106
 C       -14.6511523559       -1.0642199919        1.0563772525
 C        -8.0864314597       -1.7993461813       -0.4308880507
 C        -6.8121337288       -1.3244988037        1.7861484724
 C        -6.4228348372        5.6452539348        0.0927281989
 C        -8.0241745441        5.6204871282        1.9631598996
 C       -11.0363934193        9.1762227521       -2.0848528524
 C       -12.5052080662        7.3812589186       -2.9765942883
 C        -8.1877084563        5.9462700123       -8.0316807466
 C        -6.0238640745        5.5852526646       -6.6286607593
 H        -4.3908271171        8.3741843580       -9.1304326789
 H        -4.3237244080        6.7997626744       -8.4441018377
 H        -4.0076688287        8.0844010995       -7.4430057282
 H        -9.3054523974        8.3680802002       -6.9716986259
 H        -7.9413767098        9.3297493981       -6.3371724780
 H        -9.8759946246        9.8222221663       -4.8790505635
 H        -8.5698195002        8.9302588306       -3.9347790614
 H       -10.4331370200        5.0871982359       -3.2156800962
 H       -11.1347800303        4.8374714294       -1.6170471249
 H        -8.0972348101        5.3093582676       -1.9372221337
 H        -8.6956006690        3.6588128549       -2.1685985806
 H        -5.0427088362        3.3259495491        0.7418058736
 H        -6.1502890028        2.9469471606       -0.5955035712
 H        -6.1825607220        1.0532462407        1.6894262817
 H        -5.1233824937        0.6518903195        0.3009758983
 H       -10.2178099360       -0.6930687290       -0.3291178565
 H       -10.4598819960        0.9739263957        0.0797147781
 H       -11.4557692990       -0.5982820559        2.2494391822
 H       -12.0484322974       -1.3065564011        0.6644942234
 H       -15.3088797496        1.8846569848        4.4575882556
 H       -14.1111343723        2.5473271434        3.3676294062
 H       -13.5141074461        0.6284392447        5.5666277500
 H       -13.9016685094        2.2245437185        6.0881005961
 H       -11.1309296869        4.7317908120        7.0873433407
 H        -9.8459576097        5.6622821378        6.1170091320
 H        -9.3369409595        4.3891666158        6.9909493138
 H       -12.1720337341        1.3823196127        7.3663794295
 H       -12.1449746002        3.1451018156        7.3190823005
 H       -10.8233210611        2.3260010791        8.0168648276
 H        -8.8279363507        1.9938665866        6.2322320409
 H        -9.3375197294        1.3622687816        4.6529433031
 H        -9.6530060753        0.5195298282        6.1139117652
 H       -16.2126284631        1.3879698170        1.3233335674
 H       -15.0856238048        1.2325051089       -0.0690570503
 H       -14.7421669666        2.3415329642        1.2987262030
 H       -15.6631530310       -1.0890989810        0.7911276779
 H       -14.5113891915       -1.8087621948        1.8893838412
 H       -14.0595886055       -1.2304059381        0.2048700826
 H        -7.2412803672       -1.9459270957       -1.1416487391
 H        -8.8652348878       -1.4276629560       -1.0781444631
 H        -8.4377251823       -2.7254386015       -0.0179034312
 H        -7.0483047988       -0.9116605358        2.8027248213
 H        -5.7171603116       -1.2181711301        1.5971329801
 H        -6.9993739643       -2.3578263905        1.7770532909
 H        -5.5813342458        5.6758978308        0.8241934000
 H        -6.6057877937        6.6858710025       -0.2996450196
 H        -6.0810949483        5.1672281015       -0.8175874809
 H        -7.3113655442        6.2920053194        2.3877974027
 H        -8.3898778168        4.9721118593        2.7458369671
 H        -8.8304590063        6.2798771767        1.6828152230
 H       -10.2199853475        9.9106544744       -2.2762436420
 H       -10.9989824645        8.9158433983       -1.0034441103
 H       -11.9284137760        9.8037167057       -2.3988461474
 H       -12.8958157958        7.8619406268       -3.9094635916
 H       -13.1675077623        7.7287295287       -2.1804681773
 H       -12.7107979710        6.3115741406       -2.9751473747
 H        -8.6200056392        6.6830895501       -8.6753731497
 H        -8.9328616190        5.6089022678       -7.3104325042
 H        -7.8061658002        5.2002887679       -8.7395594436
 H        -6.5454775496        4.6679054405       -6.5692297482
 H        -5.6400806499        5.8920330128       -5.6673245383
 H        -5.2567403187        5.4775927646       -7.3443464047
 Na      -10.1922062968        2.7072863859        2.1504668517
