117

 C        -4.7981809842        7.4949312835       -8.1648322348
 C        -6.2578485950        7.7609724846       -7.9920799150
 O        -6.9242351321        8.5881398545       -8.5707606281
 C        -7.0479713457        6.5277260945       -7.1645781557
 C        -7.5442822648        7.2213330617       -5.8816924450
 O        -7.1333077486        6.9364185177       -4.7664144266
 C        -8.6022907719        8.3509789086       -5.9623662637
 C        -9.3237515537        8.6663120083       -4.6351517646
 C       -10.4297318836        7.6829124770       -4.2842442981
 O       -10.8081169816        6.8913095176       -5.1602287775
 C       -11.0816059994        7.7505433990       -2.8566384720
 C       -10.0823564446        6.8132973182       -1.9030807799
 O        -9.4256980708        7.4329610803       -1.0919361641
 C       -10.1019542236        5.3019757384       -2.1378335489
 C        -8.8728070554        4.6868996312       -1.5718869571
 C        -8.8539257123        4.5526074358       -0.0407082401
 O        -9.8254518122        4.1979461166        0.5835978893
 C        -7.5382161145        4.8932583770        0.8464767930
 C        -7.0776551324        3.5318321835        1.3300155450
 O        -7.5257085056        2.8504938796        2.2452680862
 C        -6.0559950766        2.7727042686        0.4316190529
 C        -6.0685324838        1.2938790597        0.6757120589
 C        -7.1955308563        0.5880684412       -0.0874342829
 O        -7.6636242983        1.1108146786       -1.1016348241
 C        -7.8877399617       -0.7491841398        0.4611912054
 C        -9.1496863609       -0.0197777806        1.0372355525
 O        -8.9366810942        0.5878824409        2.0764131965
 C       -10.5584814646        0.1245978090        0.3554473196
 C       -11.6950661056       -0.2390687839        1.3987020302
 C       -12.7817950682        0.8712744225        1.4343248372
 O       -12.4715686975        2.0401606004        1.6658960748
 C       -14.3073774818        0.4306068636        1.6270813720
 C       -14.4229494729        0.4606644743        3.1415246127
 O       -14.4494894445       -0.5693313308        3.7657339083
 C       -14.4635453521        1.8185909216        3.8786688768
 C       -13.4930494413        1.7474719578        5.1167824263
 C       -12.0303621834        1.6675659732        4.8284345395
 O       -11.6025116078        1.1537598717        3.8074498410
 C       -10.9251664699        2.2239642033        5.8271435179
 C       -10.6695842498        3.7698669315        5.3816132078
 O       -10.3629511509        4.0225643646        4.2325373519
 C       -10.4818138554        4.9207806701        6.4705023064
 C       -11.3248546097        2.1734523070        7.2895763325
 C        -9.5517990496        1.5318376780        5.7449589835
 C       -15.1636239552        1.4340988488        0.8296938912
 C       -14.6355892321       -1.0352520899        1.1849747565
 C        -8.0308818407       -1.7950704284       -0.6507560056
 C        -7.1360637847       -1.3152008088        1.6978221106
 C        -6.4576041929        5.6589921319        0.0091579187
 C        -7.9485675921        5.7590348149        2.0761411189
 C       -11.0738390406        9.2208301974       -2.3991424460
 C       -12.5440182668        7.1529223215       -2.9571806588
 C        -8.1463917308        5.9448991414       -8.1235597335
 C        -6.1203236817        5.3431006063       -6.7510643027
 H        -4.3179719347        8.1980405785       -8.7842932435
 H        -4.5071009909        6.5713645707       -8.5366759470
 H        -4.2558486198        7.4479765696       -7.2563610264
 H        -9.2633949562        8.1366124561       -6.7538340584
 H        -8.0394169029        9.2406890920       -6.3413382469
 H        -9.7025357875        9.6637387621       -4.7334427936
 H        -8.5839601415        8.6196565334       -3.8275339132
 H       -10.0888537191        5.0610986889       -3.2076295600
 H       -11.0551648623        4.9140783314       -1.7620695539
 H        -8.0780686004        5.4004362116       -1.9384143139
 H        -8.6268567984        3.7040529738       -1.9545549750
 H        -5.0494222299        3.0825399821        0.6178560758
 H        -6.2216951349        3.0811163431       -0.6229914570
 H        -6.0585093928        1.1411380308        1.8107697215
 H        -5.1438546783        0.8717369543        0.2678392273
 H       -10.5910936126       -0.4897165665       -0.5973241617
 H       -10.6421994357        1.2214141052        0.1209838536
 H       -11.3874749418       -0.4941976937        2.3866538231
 H       -12.0955551290       -1.0901864639        0.9125820386
 H       -15.4654828525        1.9707621463        4.3838678376
 H       -14.2670730642        2.6844372141        3.2504885027
 H       -13.8070324569        0.9128308128        5.8359244184
 H       -13.5805845642        2.6519364540        5.6838891482
 H       -11.3606545181        5.0496600723        7.0180283379
 H       -10.0158325712        5.8160045121        6.0049434600
 H        -9.6526013950        4.5620359425        7.0917048826
 H       -11.1680267681        1.0799511655        7.5347216682
 H       -12.3484946193        2.5780156872        7.4539695395
 H       -10.6617400232        2.8355757656        7.8413974752
 H        -8.7335034115        2.1847078740        5.9650490259
 H        -9.3831416536        1.0491800093        4.7956025906
 H        -9.3703306391        0.7292802165        6.4342412779
 H       -16.1893732728        1.2850427904        1.1421680585
 H       -15.0453279199        1.1860772665       -0.2518291048
 H       -14.8420783757        2.4454726430        1.1240906270
 H       -15.5417220634       -1.3220420225        1.7444089550
 H       -13.9256498763       -1.7375709486        1.4288775462
 H       -14.8419625898       -1.0319590614        0.0741933899
 H        -7.1563257629       -2.4020040445       -0.6249295193
 H        -8.0045605326       -1.3893711044       -1.6716325897
 H        -8.9323371301       -2.4478603310       -0.4658207075
 H        -6.9890035993       -0.5497865565        2.3950999861
 H        -6.1249203939       -1.5880395989        1.4412161873
 H        -7.7290668845       -2.1507591630        2.1619067118
 H        -5.6329197358        5.9669492010        0.6206640911
 H        -6.8745023763        6.5446636125       -0.3701480327
 H        -6.0550700591        5.1626861501       -0.8717675437
 H        -7.0375313175        5.7848275757        2.7368973541
 H        -8.7450217537        5.2238710687        2.6388919400
 H        -8.2640899693        6.8054394357        1.9963213386
 H       -10.1581779308        9.7645044314       -2.5726020667
 H       -11.2502923031        9.2880473600       -1.3263107684
 H       -11.7717123682        9.7556152673       -2.9808703622
 H       -13.2147962211        7.9111787954       -3.3548491358
 H       -12.9175065901        6.8894910491       -1.9569005765
 H       -12.7260792327        6.2436076603       -3.5568671407
 H        -8.7826018159        6.7365416948       -8.5753190287
 H        -8.8116929348        5.2795995498       -7.6043745132
 H        -7.5978201571        5.5259649860       -8.9302975423
 H        -6.4774458407        4.9374747520       -5.7751379646
 H        -5.1454222473        5.8091648778       -6.5443952094
 H        -6.0517736968        4.6131388393       -7.5932608949
 Na      -10.1102084092        2.5004923275        2.5354915407
