117

 C        -4.6527358487        7.4913696786       -8.1915302796
 C        -6.1939831493        7.4370399660       -8.0159589562
 O        -6.8702609519        8.3396525893       -8.5503568555
 C        -6.9769592618        6.3453946177       -7.1924904609
 C        -7.4230365836        7.1788633026       -5.8803939492
 O        -6.9345138272        6.8953749992       -4.7962316908
 C        -8.5945444316        8.1752287748       -5.9970784751
 C        -9.2550787984        8.4578828882       -4.6355906251
 C       -10.4662836400        7.5782843362       -4.3449293992
 O       -10.8011485104        6.7275887351       -5.1025243416
 C       -11.0621215090        7.6929452025       -2.9287975114
 C       -10.0289721736        6.9284696247       -2.0217169095
 O        -9.3597427890        7.5114801226       -1.1982029739
 C       -10.1072933982        5.3302384971       -2.1553676613
 C        -8.8838377141        4.7210815921       -1.4401852663
 C        -8.9617300468        4.6520788323        0.0612442847
 O        -9.9663568495        4.1964645620        0.5858672758
 C        -7.6639467402        4.9988256329        0.8429422693
 C        -7.1193469666        3.5342620779        1.2528446092
 O        -7.7348912955        3.0004839852        2.1457220843
 C        -6.0106687511        2.7924541201        0.5160640919
 C        -5.9887062520        1.1976932580        0.5963093147
 C        -7.1922451175        0.6319193160       -0.1264407445
 O        -7.5766004112        1.1383992667       -1.1409405534
 C        -7.9851259268       -0.6408236395        0.3966646171
 C        -9.1683899521        0.1165047823        1.0087201867
 O        -9.1954326524        0.4892800310        2.1812288693
 C       -10.4573429569        0.2187280163        0.1951044329
 C       -11.6227540181       -0.2642249129        1.0317959972
 C       -12.6503753183        0.8299747926        1.3550787579
 O       -12.3068605416        1.9983314969        1.4753316550
 C       -14.1572286586        0.4588034361        1.6618284285
 C       -14.2904376466        0.5264898312        3.2748831641
 O       -14.5264243828       -0.4664138470        3.9115221782
 C       -14.1918403475        1.8822489178        3.9131875386
 C       -13.4785675634        2.0849147168        5.2565598258
 C       -11.9471475021        1.6701074531        5.1134511469
 O       -11.6344712688        0.9735377810        4.1602547904
 C       -10.8579883910        2.3067584782        5.9518038643
 C       -10.6605632234        3.8690087973        5.4763451424
 O       -10.2060818468        3.9987717020        4.3639620971
 C       -10.8883491783        4.9830213913        6.4861467731
 C       -11.2985979268        2.2357942669        7.4385457867
 C        -9.5440640404        1.5006575619        5.6548957923
 C       -15.1414629577        1.5544985636        1.0002926297
 C       -14.5998066063       -0.8777130497        1.0713323059
 C        -8.3526461379       -1.5508219272       -0.7906216516
 C        -7.2975537074       -1.5550544484        1.4210824835
 C        -6.5634007049        5.7681244718        0.0260696216
 C        -7.9580898345        5.7891971033        2.2031666501
 C       -11.2423999817        9.2201937413       -2.4137679861
 C       -12.4005873766        6.8597607334       -2.8641607671
 C        -8.2912195002        6.0709980304       -8.0166982318
 C        -6.1808993134        5.0370256738       -6.8197396222
 H        -4.2599151099        8.4782505319       -8.5163750312
 H        -4.3744556990        6.8567289320       -9.0795203047
 H        -3.9339855894        7.0319818416       -7.5199927907
 H        -9.2772538861        7.6646586791       -6.7238359097
 H        -8.3570610273        9.0665745791       -6.5406020916
 H        -9.5581355927        9.4974466161       -4.7585793598
 H        -8.5662604832        8.4027472721       -3.8146253470
 H       -10.0133699012        4.9979136673       -3.1826396661
 H       -11.0313697484        4.9731092565       -1.7410826147
 H        -8.0646235671        5.3800901309       -1.7329055488
 H        -8.6582216626        3.6975571396       -1.6872840259
 H        -4.9529719363        3.0853187687        0.8742378820
 H        -5.9676298682        3.2241678388       -0.4959916083
 H        -5.8691301358        0.8373724557        1.5632714777
 H        -5.0557072188        0.9148231646        0.0634574929
 H       -10.3331673178       -0.3470457706       -0.7386225122
 H       -10.6845471885        1.2798063130       -0.0496887611
 H       -11.1836887133       -0.3482904217        2.1193427393
 H       -11.9204964506       -1.3052397736        0.6893416516
 H       -15.2255302077        2.2197120834        3.9685362237
 H       -13.6873027299        2.5612021279        3.1626038423
 H       -13.9948091082        1.4760736622        5.9876738275
 H       -13.5268822575        3.1539834493        5.6461056300
 H       -11.9844920459        4.9367366177        6.8043411186
 H       -10.6203441523        5.8716936425        5.9456824437
 H       -10.1790187636        4.8347127522        7.3025250787
 H       -11.5645291299        1.2368398565        7.5639218439
 H       -12.1190098021        2.9058184213        7.6256064305
 H       -10.4530157346        2.5436316215        8.0557161907
 H        -8.7006340611        1.7217363479        6.3196413954
 H        -9.1895722026        1.4477370149        4.6366227976
 H        -9.7324220927        0.4404660920        5.8641129054
 H       -16.1713720094        1.2405038221        1.1956671342
 H       -14.9759717993        1.4759664070       -0.0549637439
 H       -14.9149726538        2.5484954632        1.3480171265
 H       -15.6818541035       -1.0591783291        1.2519152942
 H       -13.9772764826       -1.7266793087        1.5766504369
 H       -14.3642163858       -0.8837068243        0.0105578426
 H        -7.5301602757       -2.2380703066       -1.1035043427
 H        -8.5101170356       -0.8961040689       -1.6409557886
 H        -9.1668460496       -2.1689244183       -0.5377107609
 H        -6.7620660061       -1.0152282999        2.2537745002
 H        -6.4888418877       -2.0674026095        0.9041317389
 H        -8.0453206309       -2.1869027201        1.8363617134
 H        -5.6795847645        5.9398118898        0.6277166140
 H        -6.8258911512        6.7826684865       -0.3584434974
 H        -6.1934716973        5.1274213955       -0.7822304124
 H        -7.2612331054        5.6365519692        2.9866148417
 H        -8.9723888250        5.6143653878        2.5248751007
 H        -7.9718354248        6.8706537382        2.0339515707
 H       -10.3903339741        9.4834609553       -1.8082554901
 H       -12.1423877200        9.4294730471       -1.8917771321
 H       -11.2248595711        9.8961614792       -3.2851880907
 H       -13.2231265253        7.4975848088       -3.1223254516
 H       -12.5959306731        6.3415110668       -1.9206034101
 H       -12.4100336405        6.1558131352       -3.6685053304
 H        -8.8541698116        6.9727581393       -8.1318857105
 H        -8.9687653838        5.3991797359       -7.4671756896
 H        -8.0138631568        5.6515562243       -9.0170991221
 H        -6.4705082215        4.7653752319       -5.8173318078
 H        -5.1240870498        5.2599941253       -6.7764829398
 H        -6.3906903360        4.3231432729       -7.5890556130
 Na      -10.0998917160        2.6787628028        2.4694400118
