117

 C        -4.6693214677        5.9016301542       -7.3893344994
 C        -6.1421173185        5.6521519351       -7.8454837140
 O        -6.4936594608        5.9628986478       -8.9700475393
 C        -7.0864395612        4.8909463762       -6.8783048278
 C        -7.5725526106        5.8058787039       -5.7476451342
 O        -7.2347235728        5.5366311599       -4.6067664911
 C        -8.3750598026        7.0707306990       -6.0419269113
 C        -8.9294322770        7.8076117044       -4.8758886778
 C       -10.3605236683        7.3981812874       -4.4872763668
 O       -11.0887617786        7.1211975832       -5.3751716038
 C       -10.8866035806        7.3219063901       -3.0588961380
 C        -9.8653906318        6.5325777969       -2.0451287676
 O        -9.5784266713        7.0168818122       -0.9723551871
 C        -9.3075053283        5.1497398508       -2.5456208719
 C        -8.1014510497        4.6430576201       -1.7315709327
 C        -8.4541372264        4.4207663955       -0.2598597326
 O        -9.5785168309        4.0454560679       -0.0263669275
 C        -7.4430417064        4.7784931808        0.8825462760
 C        -7.2906710113        3.5009061563        1.7889819819
 O        -8.1031307656        3.1819464890        2.6395149695
 C        -6.0677832945        2.6304253866        1.6806623498
 C        -6.5548647550        1.1817868925        1.4435922085
 C        -7.2959711867        1.1132380652        0.0490712754
 O        -6.8839443582        1.8817422092       -0.8019805887
 C        -8.5622488534        0.1812668836       -0.2154984683
 C        -9.8096755838        0.6436910814        0.6381566994
 O        -9.6890300431        0.9319590777        1.8283955145
 C       -11.1863233397        0.3958621749       -0.0261017871
 C       -12.2994280916        0.3428295136        1.0105890391
 C       -12.8898400655        1.6600910989        1.2949608879
 O       -12.3870289410        2.7451207406        1.1579419681
 C       -14.2596694360        1.5128412666        2.0649506100
 C       -14.0370675651        0.9761431536        3.5190119013
 O       -13.6540503730       -0.1824884600        3.6852399482
 C       -14.3305896447        1.7746503032        4.8196204189
 C       -13.0722769510        1.5864023816        5.7251743189
 C       -11.8354783274        2.1828372470        5.0891645357
 O       -11.6730337413        2.0967341745        3.8677055020
 C       -10.7368031578        3.0083714540        5.8510945826
 C       -10.4929189764        4.4689035057        5.1945456883
 O       -10.5725117182        4.5962675530        4.0165802187
 C        -9.8425780584        5.6020758961        6.0195983416
 C       -10.9728671521        3.2088237828        7.3498977694
 C        -9.3556473819        2.2719310764        5.6715707352
 C       -15.0916153791        2.8538541532        1.9614771224
 C       -15.1261995597        0.5373231305        1.3614812023
 C        -8.7881351747        0.1844168271       -1.7156370844
 C        -8.1033537329       -1.2752419072        0.4090544265
 C        -6.0550043334        5.2233313048        0.3348196529
 C        -8.2229344477        5.8648833931        1.7820592674
 C       -11.3167830384        8.6325271700       -2.4537940361
 C       -12.1072523005        6.3828994614       -3.0111470342
 C        -8.3001148637        4.3758739652       -7.7565050723
 C        -6.2826002395        3.6418268945       -6.3429828783
 H        -4.5730268668        7.0259091210       -7.3094618990
 H        -3.9739688015        5.5944106579       -8.2256268252
 H        -4.2111384042        5.5721067012       -6.4158725121
 H        -9.2991237499        6.7480560907       -6.5954211586
 H        -7.7576123825        7.7362299407       -6.6501989294
 H        -8.9928831218        8.9414535870       -5.0451098794
 H        -8.2455571201        7.6978126129       -3.9996247379
 H        -8.9069153418        5.3034717797       -3.5654118591
 H       -10.2124649108        4.5024061097       -2.6871291569
 H        -7.2999947700        5.4340096031       -1.9611891988
 H        -7.7766800001        3.7159199176       -2.0633427653
 H        -5.6043681077        2.6637704965        2.6715098120
 H        -5.2996568140        2.9518398449        0.9788998665
 H        -7.0426113082        0.7512841097        2.3194844492
 H        -5.6400449720        0.5872690982        1.3003576082
 H       -11.1542197192       -0.5318089609       -0.5520046523
 H       -11.3731397241        1.2302366291       -0.6560308125
 H       -11.8835016004        0.0119519997        2.0405396572
 H       -13.0385374126       -0.3880879494        0.6015353408
 H       -15.2130236675        1.4445031004        5.3083143449
 H       -14.4140308792        2.8448605776        4.7407094203
 H       -12.8929027935        0.5276399347        5.9465991772
 H       -13.2182476383        2.0499958118        6.7576100041
 H       -10.4999812648        5.7044401740        6.9284452844
 H        -9.8387474959        6.5144314726        5.3752215234
 H        -8.8439710891        5.2830185647        6.2400205927
 H       -11.3043919312        2.3264899113        7.8167099117
 H       -11.7220891706        3.9300302573        7.5915001353
 H       -10.0912509815        3.5376125529        7.9006868493
 H        -8.4647067915        2.9056719148        5.8061503675
 H        -9.3374796240        1.9276205987        4.6438658057
 H        -9.4077541169        1.3538689074        6.2740256440
 H       -16.1698199624        2.8006403462        2.1783791771
 H       -14.9523416908        3.3066502808        0.9955984449
 H       -14.7027173780        3.5420730807        2.6966807064
 H       -16.0248003308        0.3380869199        1.9879594288
 H       -14.7135307744       -0.3880687148        1.1343942638
 H       -15.5490794309        1.0180339960        0.4539634816
 H        -7.9194839593        0.4102827376       -2.3533406100
 H        -9.6432007194        0.8472827052       -1.9659932334
 H        -9.1428246557       -0.7377705689       -2.1033249679
 H        -8.0858753396       -1.1924156387        1.5314495390
 H        -7.1386785169       -1.6042259632        0.0172221581
 H        -8.7788302240       -2.0902463122        0.1182043757
 H        -5.3796247083        5.5548039630        1.0991332437
 H        -6.2762798572        5.9956536462       -0.4247077565
 H        -5.6218159507        4.3905191322       -0.2905544155
 H        -7.5649135995        6.2564388462        2.5306813085
 H        -9.1370219180        5.5153366592        2.2537011334
 H        -8.5457822194        6.6813415370        1.0985053877
 H       -10.5296775699        9.3726330832       -2.5938116764
 H       -11.4754766032        8.5634483780       -1.3953209051
 H       -12.1682327257        9.0182087756       -2.9740037682
 H       -12.8250028134        6.8528516579       -3.6307629379
 H       -12.5175138953        6.4729401188       -1.9863826927
 H       -11.8236281146        5.4143993686       -3.3515416374
 H        -8.8051105703        5.2338737172       -8.1568789566
 H        -8.9515540177        3.6912424976       -7.1963068745
 H        -7.9537633732        3.7928783458       -8.6396633992
 H        -6.1659251448        2.9258841980       -7.1811966964
 H        -6.7652821828        3.1207004504       -5.4901026649
 H        -5.2477219985        3.8192764813       -6.0060780309
 Na      -10.4039914183        3.3055383526        2.1664014141
