117

 C        -4.7354291888        5.3479754168       -7.3150541359
 C        -6.1454973573        5.3545428656       -7.7681079078
 O        -6.4430481958        5.8527497122       -8.8064788033
 C        -7.1523697155        4.6370776000       -6.7355288617
 C        -7.4212708886        5.7631127451       -5.6778257511
 O        -6.7921721431        5.7334949411       -4.6325593631
 C        -8.4789892531        6.9104966592       -5.9942606462
 C        -9.0562142022        7.7226592666       -4.8385678631
 C       -10.4923378651        7.2673778605       -4.5978016918
 O       -11.1667629554        6.9161408763       -5.6021272469
 C       -10.9856514528        7.2054873535       -3.0888721774
 C        -9.9162177663        6.4695719356       -2.2257571071
 O        -9.1588502511        7.1062216282       -1.5338609207
 C        -9.5108391139        4.8739056795       -2.4880790455
 C        -8.1986973426        4.6998215417       -1.6630601761
 C        -8.3681795816        4.3326635436       -0.2341039953
 O        -9.4324860023        3.8419527405        0.1135552176
 C        -7.2599306505        4.7168194778        0.8557224879
 C        -7.1343764158        3.4621774507        1.8491954317
 O        -7.9907890245        3.2254952502        2.6958768942
 C        -5.9842774529        2.4268826273        1.7092636312
 C        -6.5737330972        1.0542567444        1.4344236487
 C        -7.2752266629        1.0453125347        0.0951296268
 O        -7.1606026193        1.9621671792       -0.7131382117
 C        -8.3875430534       -0.0612266231       -0.1898012773
 C        -9.7417860191        0.4817679993        0.5918671528
 O        -9.5766017714        0.8816644755        1.7218237331
 C       -11.1875446544        0.5253604447       -0.0210801809
 C       -12.1939178489        0.4237957947        1.1180664356
 C       -13.1546194417        1.6605952828        1.3457543983
 O       -12.7254944194        2.7377920632        0.9402021840
 C       -14.4652612145        1.6478170190        2.2301879555
 C       -14.1102811865        1.0487242524        3.6938876467
 O       -13.5479975966       -0.0055635955        3.7048597196
 C       -14.4343810270        1.7642533471        5.0242402089
 C       -13.1548093798        2.1869889907        5.8270621022
 C       -12.0019288500        2.7131451816        4.8773526947
 O       -12.0324345699        2.7912144607        3.6799993229
 C       -10.7454649369        3.1961177139        5.6781822867
 C       -10.4448089675        4.6271688296        5.1976896275
 O       -10.4677134548        5.0092797714        4.0133017719
 C       -10.0140551025        5.7730279730        6.2485557948
 C       -10.8307706306        2.9815472021        7.1496670069
 C        -9.5618205952        2.3470395830        5.0079443221
 C       -14.9168846141        3.0741886370        2.3330423429
 C       -15.4907047459        0.6753288822        1.5933634188
 C        -8.6478368027       -0.1423743277       -1.7538422296
 C        -7.9834185070       -1.3597096943        0.4694302590
 C        -5.8686102111        5.2279220527        0.3149032685
 C        -7.8232215442        5.9312251485        1.6771016536
 C       -11.0487980761        8.6210958955       -2.5033923323
 C       -12.3820026957        6.5757144155       -3.1310866875
 C        -8.3565685342        4.0555441226       -7.4575419266
 C        -6.5079502944        3.4389523487       -6.0909140319
 H        -4.4255550239        4.8110779663       -6.3608779396
 H        -4.3662518506        6.3965205981       -7.3293943143
 H        -4.0589143483        4.9386457314       -8.1436884972
 H        -9.3166876580        6.5104353409       -6.6327361650
 H        -8.0827042518        7.6292903823       -6.7024913719
 H        -9.0482618965        8.8345614913       -5.0944682565
 H        -8.4020203134        7.6270738497       -3.9173381746
 H        -9.3950637783        4.7865027552       -3.5957341978
 H       -10.2328006304        4.0638973602       -2.1994338755
 H        -7.7627874840        5.6689731018       -1.5389192979
 H        -7.5579411776        3.9148910628       -2.1847219316
 H        -5.3001042387        2.4327983223        2.5723689121
 H        -5.2898045849        2.6940229426        0.9110886493
 H        -7.3489354983        0.8853869410        2.1167041301
 H        -5.8860041711        0.1920625299        1.6448905795
 H       -11.2546568044       -0.2878085594       -0.6854894800
 H       -11.2487494457        1.4459647166       -0.5646944105
 H       -11.5717717988        0.5071810195        2.0882004703
 H       -12.6546235830       -0.6568940031        1.1185295266
 H       -14.9729056043        1.0507257782        5.6135176345
 H       -15.1310141006        2.5901436450        4.9469255644
 H       -12.7849256628        1.1469226269        6.2424754539
 H       -13.3162434759        2.7543917651        6.7038972915
 H       -10.1986345882        5.5063305809        7.2816085748
 H       -10.5316202695        6.7445552096        6.1136395399
 H        -8.8783313317        5.8075566924        6.1704220358
 H       -11.1793748667        1.9667644218        7.3819765214
 H       -11.4820895666        3.7440606183        7.5647333784
 H        -9.9001083621        3.0670732611        7.6204090496
 H        -8.6897468753        2.9936863318        4.9367480540
 H        -9.7655673560        2.0259396282        3.9651005033
 H        -9.3640335881        1.5131947112        5.6809389669
 H       -15.5705753891        3.3244027441        3.1489347878
 H       -15.5091750971        3.2544209682        1.4074970156
 H       -14.0740788214        3.7795527304        2.3600562702
 H       -16.4451039606        1.0576141034        1.3780684216
 H       -15.7688946891       -0.1199214171        2.3159556454
 H       -14.9962722227        0.3582853473        0.7040491767
 H        -7.7692583457       -0.2770128649       -2.2998582518
 H        -8.9253136005        0.7517760375       -2.2302949860
 H        -9.4809603128       -0.8411985175       -2.0135675517
 H        -7.9942335703       -1.3016531356        1.5386990141
 H        -6.9631109268       -1.6287633877        0.1431322444
 H        -8.5996120991       -2.2224194526        0.0582251754
 H        -5.1576532435        5.4062922257        1.1555210313
 H        -5.9864757601        6.1595350135       -0.2446537692
 H        -5.4375178744        4.4805143653       -0.3346777418
 H        -7.0037909637        6.4463022620        2.2369444513
 H        -8.3893867539        5.4429833549        2.4933914100
 H        -8.3980322039        6.6746106228        1.1411970642
 H       -10.1485476227        9.1230263217       -2.6148504478
 H       -11.2249869508        8.4947461112       -1.4618970323
 H       -11.8010124970        9.2616081108       -2.9002945273
 H       -12.9434406960        6.9503321323       -3.9722085954
 H       -12.8514482408        6.7709401257       -2.1822481991
 H       -12.2237394999        5.5080991191       -3.2663839503
 H        -8.9129293402        4.8088519366       -8.0366154541
 H        -8.9516428446        3.4771602764       -6.7636142374
 H        -7.9899797791        3.3985635630       -8.2182230998
 H        -6.0975196254        2.7623844724       -6.8965097520
 H        -7.2801973167        2.8432345959       -5.5478648500
 H        -5.6740265416        3.6092786093       -5.3591948456
 Na      -10.3710939112        3.3887598770        2.0686001395
