117

 C        -4.6270514764        5.1635045773       -7.3762323412
 C        -6.1619257757        5.2302949120       -7.5961578844
 O        -6.6561637457        5.7427940912       -8.5615568928
 C        -7.1464839358        4.5233873860       -6.5940834403
 C        -7.4481282062        5.6979054085       -5.6281323874
 O        -6.9083862624        5.7444828792       -4.5140560342
 C        -8.3035154487        6.9500109423       -6.1211385900
 C        -9.0106997994        7.6166158174       -4.9371268826
 C       -10.3665577020        6.9869095134       -4.6586293937
 O       -11.1021792050        6.4693414638       -5.5232418006
 C       -10.8884815498        7.2216561851       -3.1275535799
 C        -9.7156398809        6.6851420420       -2.2023049403
 O        -8.9759016897        7.2937084815       -1.4977184006
 C        -9.5317034412        5.1610269164       -2.4397305134
 C        -8.2111152461        4.6444003526       -1.7906556575
 C        -8.4262584877        4.4177872566       -0.3036943139
 O        -9.5372483353        4.1971972416        0.1876006928
 C        -7.2185287955        4.7684912924        0.6665422536
 C        -7.1428246834        3.6141935925        1.6420908699
 O        -8.0225148233        3.5589914061        2.5005224343
 C        -6.0801442551        2.5448878712        1.4760902360
 C        -6.6671959977        1.1761573432        1.4242732846
 C        -7.2801438374        0.8799632174        0.0380144261
 O        -6.9893630059        1.4475498469       -0.9816425913
 C        -8.5757221060       -0.0821174524       -0.0355251388
 C        -9.7986575535        0.4457678055        0.7933794464
 O        -9.6576323092        0.9691433223        1.8803083432
 C       -11.1394037857        0.3616948435        0.1012510203
 C       -12.3154313191        0.2819491590        1.0816119240
 C       -13.0366211629        1.7132734867        1.2940124476
 O       -12.5383811791        2.7616804592        0.9522297314
 C       -14.4245250739        1.7593225279        2.1592305735
 C       -13.9822174740        1.2961346775        3.5995487373
 O       -13.2643310696        0.3153679503        3.7658331839
 C       -14.4445636216        1.9778416855        4.9210713325
 C       -13.2240650101        2.2780411509        5.8773109546
 C       -12.0557979157        2.7583082418        5.0243271182
 O       -12.2015583128        2.9598251109        3.8226901231
 C       -10.6715721331        3.1376334296        5.6864961679
 C       -10.3624749434        4.6349572980        5.1605265405
 O       -10.0882537557        4.8463246934        3.9900480093
 C       -10.3487051235        5.7515278090        6.1371906084
 C       -10.7783378529        3.2042448028        7.3008523710
 C        -9.6290660473        2.1403857856        5.1532309792
 C       -14.9623441410        3.2205799388        2.1340923155
 C       -15.2913395477        0.6591498720        1.4850992317
 C        -9.0441733655       -0.2382428093       -1.5161114783
 C        -8.2031158108       -1.4299114864        0.6177776691
 C        -5.9257512275        5.0403925054       -0.0421278892
 C        -7.6926778704        5.9918848874        1.5294553369
 C       -11.1193440528        8.6983546164       -2.9552657146
 C       -12.1701761689        6.4171559410       -2.8648928346
 C        -8.3848575055        4.0772952221       -7.4629329153
 C        -6.6082720140        3.3070240944       -5.8489349302
 H        -4.2837168331        4.1858665154       -7.0548718075
 H        -4.4245766136        5.7594864158       -6.5385065431
 H        -4.0079159491        5.5416447739       -8.1465464196
 H        -9.0234331923        6.7758431130       -6.9488185153
 H        -7.6451503923        7.6191806412       -6.6288297371
 H        -9.2201154880        8.6871470180       -5.1060532956
 H        -8.4135850911        7.5215572145       -4.0599621615
 H        -9.6306059179        4.8947717311       -3.4844788140
 H       -10.4099866223        4.7686605640       -1.8881434857
 H        -7.3764520826        5.3036895048       -2.0637123782
 H        -8.1163987901        3.6542499269       -2.1061442001
 H        -5.3698816044        2.6153686589        2.2644747564
 H        -5.4493161701        2.7066418433        0.6299906845
 H        -7.3835708611        1.0344504726        2.2193218878
 H        -5.8519932633        0.4029448229        1.6850133120
 H       -11.1145649989       -0.5337993193       -0.5275910089
 H       -11.1488512003        1.2153286885       -0.6191505862
 H       -11.9918083332       -0.0440786017        2.0033279895
 H       -13.0340290867       -0.4450341960        0.7585056122
 H       -15.1451140454        1.3042763739        5.3602392428
 H       -14.9715662311        2.9046668254        4.7700226288
 H       -12.8421298677        1.2877759633        6.2110776968
 H       -13.4113982273        2.8408245250        6.7810730564
 H       -11.2796921893        6.0305349379        6.6114201760
 H       -10.1704817943        6.5908420482        5.4361549255
 H        -9.6043794924        5.6405653529        6.9144412209
 H       -10.9386672871        2.1490830960        7.6448339209
 H       -11.6015794387        3.8390287496        7.6866604675
 H        -9.8021071208        3.4718492346        7.6918920030
 H        -8.6174557566        2.5292389626        5.0378978793
 H       -10.0571089139        1.9307610527        4.1676975794
 H        -9.5703199597        1.2593952477        5.7664361961
 H       -15.9998671483        3.2470099636        2.4389220579
 H       -14.8440762523        3.7110186444        1.1617299779
 H       -14.3485797934        3.7823275339        2.8414797896
 H       -16.2391178447        0.5453311612        2.0295949476
 H       -14.6977049101       -0.2536320589        1.6624676361
 H       -15.4177941416        0.8354515467        0.3790509773
 H        -8.4097826205       -0.3391061902       -2.3751434441
 H        -9.5401198693        0.6984672284       -1.8083920945
 H        -9.8321765341       -1.0277821458       -1.5496625650
 H        -7.9037118650       -1.3931381516        1.6393470620
 H        -7.4580682741       -1.9082408707        0.0469409136
 H        -9.1603715167       -2.0362527194        0.6090735352
 H        -5.1361638292        5.2672710515        0.6364842916
 H        -6.0307042615        5.9576456148       -0.5947974739
 H        -5.6588519620        4.2151945969       -0.7208432191
 H        -7.0441309083        6.1550727895        2.3748516764
 H        -8.7319221195        5.8975094302        1.8506367365
 H        -7.5852202932        6.8633538018        0.9150192042
 H       -10.1673318365        9.2182553443       -3.1540175405
 H       -11.4744612357        8.9750210662       -1.9079361121
 H       -11.8877331224        9.1223873456       -3.6180180012
 H       -12.7105729434        6.5287962481       -3.7855205571
 H       -12.7190088412        6.7329227572       -1.9273527228
 H       -12.0145424541        5.3402707194       -2.7344236964
 H        -8.4179160399        4.8278869758       -8.2512563925
 H        -9.3306849270        4.1024312710       -6.9144850062
 H        -8.1830809036        3.0948279319       -7.9251218581
 H        -6.3658790751        2.5320685029       -6.5480354272
 H        -7.3981763970        2.9126148071       -5.2785712499
 H        -5.7491280773        3.4956321660       -5.2477376722
 Na      -10.4216362926        3.2446602447        2.2723553637
