117

 C        -4.6316329614        4.7425615806       -7.4862432648
 C        -6.1527438456        5.0230633893       -7.5847797234
 O        -6.5435703252        5.7107181861       -8.4794167612
 C        -7.1301804276        4.4404513198       -6.4545787658
 C        -7.6546718048        5.7539254887       -5.5847570310
 O        -7.6880185376        5.6848856447       -4.3683466691
 C        -8.2693735913        6.9324375008       -6.3513410044
 C        -9.1262354460        7.7985009096       -5.4368870490
 C       -10.2075696058        6.9306532418       -4.7836697145
 O       -10.5622924198        5.7956511022       -5.1864716405
 C       -10.8193357619        7.2863794904       -3.3737208517
 C        -9.9101845990        6.5113734324       -2.3199633282
 O        -9.3327230099        7.2229611149       -1.5353404358
 C        -9.6505680929        4.9732937377       -2.4892403352
 C        -8.3283311742        4.5762284951       -1.8016319754
 C        -8.4143592833        4.5567530879       -0.3251367993
 O        -9.4859707372        4.4550662010        0.2202633271
 C        -7.0873002423        4.7731407969        0.5671896133
 C        -7.0417507705        3.5571400143        1.4572918588
 O        -7.7786135463        3.4395074188        2.4255006459
 C        -6.0472128960        2.4790994362        1.3083959446
 C        -6.7513077344        1.1005331776        1.3368657706
 C        -7.3954661135        0.7358895258        0.0213769426
 O        -7.0642305163        1.3752779718       -0.9807555596
 C        -8.5453434125       -0.3249776644       -0.0073280633
 C        -9.8846342766        0.3955283619        0.5517757407
 O        -9.7068442078        1.0723345008        1.5356643039
 C       -11.2617531931        0.3469271942       -0.1308786937
 C       -12.3960228820        0.2889653516        0.9347038355
 C       -12.9373490537        1.6677904796        1.3653244284
 O       -12.3073430417        2.6911727490        1.1746377104
 C       -14.3410295314        1.7664147014        2.1467539150
 C       -14.0710593833        1.5153746743        3.6515380083
 O       -13.6313865352        0.4280050931        3.8779482284
 C       -14.5094506673        2.4738890943        4.8344574810
 C       -13.2931382624        2.5951020512        5.8220539586
 C       -12.0253903703        3.0397919270        5.1126177467
 O       -11.9583484660        3.0736874298        3.9218493856
 C       -10.7394999373        3.3673772237        5.9696631460
 C       -10.2511099005        4.6390798959        5.3746424143
 O        -9.7158538828        4.7377413550        4.2703091991
 C       -10.5469947506        5.9299437572        6.1380467267
 C       -11.0716382403        3.3354791980        7.4366858153
 C        -9.6530815489        2.2277080556        5.5279351901
 C       -14.8345253983        3.2139859432        1.9914576697
 C       -15.5383354558        0.7042181631        1.8695541379
 C        -8.7980297508       -0.8029252458       -1.4791555556
 C        -8.3273326303       -1.5462580451        0.9332864320
 C        -5.7138092156        5.0612423795       -0.1432103922
 C        -7.5046184476        6.0257218136        1.4550952998
 C       -10.7492471962        8.8408379557       -2.9745434589
 C       -12.3374993876        6.8872165485       -3.3400552655
 C        -8.3984229744        3.9631644828       -7.2645095803
 C        -6.5981474566        3.2534419485       -5.6240890247
 H        -4.2852942807        3.9027217642       -8.1027213322
 H        -4.2313281111        4.5979662725       -6.5072879633
 H        -4.2398747710        5.6643876553       -7.8672746288
 H        -8.7458133182        6.6406284886       -7.3177203047
 H        -7.5034636483        7.5757606037       -6.7393968606
 H        -9.6376823781        8.5269668003       -6.0236022518
 H        -8.5398697866        8.2601571866       -4.7079783238
 H        -9.5465528781        4.8158578087       -3.5339649913
 H       -10.4612009925        4.3910417452       -2.0859061432
 H        -7.5892648126        5.2960367450       -2.0405335933
 H        -8.1095781990        3.6017384722       -2.2093906388
 H        -5.2917643332        2.5733647776        2.1262421739
 H        -5.4493433469        2.5335838292        0.3787998301
 H        -7.5017575592        1.0268742761        2.0872382115
 H        -5.9315352110        0.3232591226        1.5793357119
 H       -11.2686198624       -0.5342822939       -0.8406465712
 H       -11.3757863175        1.2350257706       -0.8783539538
 H       -12.0867427968       -0.1248443196        1.8189817818
 H       -13.2237725895       -0.3400404081        0.6883553628
 H       -15.3673842358        2.0071689722        5.3634229050
 H       -14.7417872257        3.4762748084        4.4106923517
 H       -13.0094805987        1.5169406465        6.0463173767
 H       -13.5562343491        3.0941402055        6.7117841383
 H       -11.3760750419        6.4717526819        5.7339658755
 H        -9.8096223210        6.6811596872        5.9129095236
 H       -10.7304561886        5.8075725011        7.2269590244
 H       -11.2472388562        2.2991305278        7.7340914649
 H       -11.9658060840        3.9040997125        7.6132436121
 H       -10.2731552777        3.7645722056        7.9385210786
 H        -9.0617188287        1.9263241032        6.3859938152
 H        -9.1073575422        2.6722336148        4.6828433741
 H       -10.1792787387        1.3466841327        5.1573006422
 H       -15.8461530497        3.2574711817        2.2882298193
 H       -14.8095188495        3.4876429424        0.9351449968
 H       -14.2073678058        3.9316296241        2.4998345879
 H       -16.4063992060        1.1306323736        2.2394454745
 H       -15.1814884927       -0.2850718006        2.2308685664
 H       -15.6358986455        0.5750113384        0.8095304238
 H        -8.0173320060       -1.3812454332       -1.9097011759
 H        -8.9552606093        0.0504740591       -2.0907347732
 H        -9.5375541316       -1.6077649234       -1.6430712337
 H        -8.4258073694       -1.3406127340        1.9729840323
 H        -7.3249197813       -1.8642886584        0.7278461014
 H        -9.1113899403       -2.3530170322        0.7622174467
 H        -4.9086710594        5.1805636248        0.6471183425
 H        -5.6609059020        6.0250326179       -0.7114306290
 H        -5.3954732353        4.2695020736       -0.8623842609
 H        -6.6661280095        6.6000556642        1.8124188624
 H        -8.0768474671        5.6611325965        2.2978320185
 H        -8.1607958106        6.6538154570        0.9219880829
 H        -9.6858263362        9.1513449300       -2.9918392750
 H       -11.1213520923        8.9584006515       -1.9199625000
 H       -11.4223755738        9.5117170401       -3.6061995385
 H       -12.9247316232        7.6799581614       -2.8595662678
 H       -12.5435879564        5.9293867810       -2.7977910679
 H       -12.7636665555        6.7102118493       -4.3377730472
 H        -8.4625117334        4.6493849325       -8.1227718782
 H        -9.3253254448        4.1684567701       -6.7306760564
 H        -8.2517043423        2.9090992900       -7.4949774131
 H        -6.2003342052        2.4486047218       -6.2762965978
 H        -7.4499841520        2.8523475253       -5.0767014835
 H        -5.8357535101        3.5763439435       -4.8837093389
 Na      -10.1996577290        3.4517393032        2.2678221404
