117

 C        -4.6846874280        5.6329887371       -7.4292493494
 C        -6.1122859645        5.4225888280       -7.8003173711
 O        -6.5258320796        5.8170420159       -8.8660616736
 C        -7.0809597738        4.7049318797       -6.7911000665
 C        -7.5293729609        5.8160620425       -5.7629604466
 O        -7.0815004725        5.7132254937       -4.6395045449
 C        -8.3703209588        6.9549510529       -6.2092423480
 C        -8.9233672116        7.6400526171       -4.9419737002
 C       -10.3933503328        7.2796707872       -4.6129213869
 O       -11.2446981388        7.2301168636       -5.4265059867
 C       -10.8823326222        7.1290962799       -3.0175569530
 C        -9.8335861548        6.4647467743       -2.1003100447
 O        -9.4145379965        7.0837921698       -1.1069860077
 C        -9.4280231553        5.0163739727       -2.4374841610
 C        -8.0961885751        4.6423651017       -1.7188328260
 C        -8.4076090512        4.3170552204       -0.2604541832
 O        -9.4019927000        3.7202810735        0.0340866134
 C        -7.4217393037        4.6659101417        0.9257746276
 C        -7.2040020141        3.4237540248        1.8795429715
 O        -8.0775143516        3.1601094419        2.6721234671
 C        -5.9335993261        2.5102660011        1.7960508039
 C        -6.4349880455        1.0749557731        1.3281705317
 C        -7.3876227454        1.1637183830        0.0915151350
 O        -7.3310283711        2.1715702601       -0.6140368130
 C        -8.4366179596        0.1202290864       -0.2200278890
 C        -9.6959966109        0.5479575662        0.6725595350
 O        -9.4629087969        1.0700598793        1.7583329274
 C       -11.1421227473        0.5810448773        0.0446123854
 C       -12.2846725789        0.3093171514        1.0371257184
 C       -13.0191329245        1.6011388093        1.3073315892
 O       -12.5276804885        2.6752781872        1.0301126185
 C       -14.4226538563        1.5582698422        2.1507153290
 C       -14.0279922760        0.9070316436        3.6032344540
 O       -13.7252055337       -0.2783525043        3.6903988917
 C       -14.3242608794        1.7440872530        4.9202893221
 C       -13.0919440973        2.0356631149        5.7640920319
 C       -11.9260779416        2.5995107015        4.9834177175
 O       -11.9971122816        2.5791231262        3.7491403946
 C       -10.6224578528        3.1350882012        5.6725215370
 C       -10.4306962524        4.7072050508        5.1617500673
 O       -10.7296426983        5.0598289717        4.0590319828
 C        -9.9051276671        5.7033867498        6.1321860723
 C       -10.6377862503        3.0442823827        7.2428696939
 C        -9.4089389865        2.2516501693        5.2545981241
 C       -15.0531327044        3.0094222055        2.1985662875
 C       -15.4168873772        0.6668590533        1.4177718530
 C        -8.5980646920       -0.0514700624       -1.7409498388
 C        -8.1015297821       -1.2686358328        0.2993157186
 C        -6.0187957790        5.1116614548        0.2320459334
 C        -8.0631263902        5.8429305597        1.7894458171
 C       -11.1197265475        8.5989094053       -2.5705920152
 C       -12.1945509639        6.3338937567       -3.0144573716
 C        -8.2847720025        4.3319062132       -7.6391320522
 C        -6.3564643489        3.4759396327       -6.0585770169
 H        -4.5378769694        5.8741925506       -6.4169219624
 H        -4.1574980302        6.2978961157       -8.1159683047
 H        -4.1175025145        4.7433297263       -7.5266417767
 H        -9.1307503153        6.6630580569       -6.9179306711
 H        -7.7417266827        7.6945890840       -6.7660072227
 H        -8.8788383497        8.7078999841       -5.0439706050
 H        -8.3037785043        7.4170734322       -4.0783958180
 H        -9.3078418274        4.9429657236       -3.5384230579
 H       -10.2484096797        4.3250752441       -2.2156470344
 H        -7.4252174106        5.5196237047       -1.7364625119
 H        -7.7178043517        3.7585356832       -2.1913003700
 H        -5.3859402393        2.4981888165        2.7126197231
 H        -5.2073992141        2.8647943084        1.0915675981
 H        -6.8738975681        0.4671601228        2.2070983220
 H        -5.5861748125        0.4762617745        1.0540986482
 H       -11.2024750214       -0.0570343552       -0.8684258969
 H       -11.2460890888        1.6527704437       -0.1626454820
 H       -11.9824843868       -0.0989042961        1.9540614898
 H       -12.9563613049       -0.3308565555        0.6108398824
 H       -15.0526132522        1.2187782898        5.5510226148
 H       -14.8013749227        2.6976406132        4.7096479308
 H       -12.8490832467        1.2241032538        6.3412080741
 H       -13.3675896288        2.8189575320        6.5459187142
 H       -10.0332618027        5.3557641505        7.1682316675
 H       -10.5338279017        6.5929987195        6.0252411919
 H        -8.8594444977        5.8591551818        5.9140269136
 H       -10.6261709133        2.0188741887        7.6097473819
 H       -11.4440617617        3.6336425595        7.7148348768
 H        -9.6912000444        3.5370630763        7.6570264023
 H        -8.5580873677        2.5566976327        5.8585280477
 H        -9.0770537500        2.3794994419        4.2504770297
 H        -9.7108774451        1.2199351752        5.4367298539
 H       -15.9364398248        3.1288098288        2.8686903267
 H       -15.3792824430        3.2507001887        1.1974395775
 H       -14.3235700150        3.7467857283        2.5395189751
 H       -16.3642913812        1.2357041793        1.2325972771
 H       -15.8617128420       -0.1642480155        1.9435357355
 H       -15.0012950461        0.4490411264        0.4282101731
 H        -7.7174629975       -0.6692432408       -2.0466004904
 H        -8.4764783499        0.7983438027       -2.4377108848
 H        -9.5149616615       -0.4633600904       -2.0331524366
 H        -7.8168570835       -1.1445169259        1.3531319732
 H        -7.2697996657       -1.6966697623       -0.2561221272
 H        -8.8369917806       -1.9736459368        0.1595869723
 H        -5.3433853629        5.0795944743        1.0524102071
 H        -6.0886016019        6.0919155144       -0.1993453848
 H        -5.6337842650        4.4578784205       -0.5129280110
 H        -7.5183960751        5.9535256109        2.7254807232
 H        -9.0819700751        5.6063373534        2.1092431745
 H        -8.0102186756        6.7918310279        1.2140963689
 H       -10.1680588407        9.1445020384       -2.4632189914
 H       -11.5571259070        8.6055995111       -1.5979432336
 H       -11.6677958390        9.2008113673       -3.3060793281
 H       -13.0360701437        7.0109368341       -3.2363881486
 H       -12.3478081579        5.9701901464       -2.0097593077
 H       -12.0837026872        5.5532489045       -3.7681085911
 H        -8.3788231063        4.9422226250       -8.5101622948
 H        -9.1367865097        4.3283325218       -6.9779958573
 H        -8.2336565796        3.3090565791       -8.0061087861
 H        -5.5887068788        3.0104496688       -6.6298602916
 H        -7.0805944769        2.7388812898       -5.7354324542
 H        -5.9144181708        3.7949406614       -5.1350818732
 Na      -10.4950661667        3.3281456251        2.1628694981
