117

 C        -4.6937876289        4.9102744141       -7.3010332143
 C        -6.1503304485        5.1011659927       -7.6308175337
 O        -6.4962701091        5.8130884399       -8.5832489238
 C        -7.2324727977        4.5192143272       -6.5809319361
 C        -7.5997825786        5.6843145696       -5.6179006380
 O        -7.2479238428        5.5530685321       -4.4692110112
 C        -8.2506517715        6.9356110914       -6.2187767184
 C        -9.0330772291        7.7430412481       -5.1618986087
 C       -10.2857764128        6.9080798538       -4.6505395218
 O       -10.8070920870        6.1110603567       -5.3405167151
 C       -10.7985469159        7.2826967219       -3.2231309739
 C        -9.7894153691        6.6301234768       -2.2726627573
 O        -9.1311842767        7.3005600563       -1.4785579960
 C        -9.5900819756        5.1017987881       -2.4836918164
 C        -8.2731352500        4.6039324780       -1.8015054279
 C        -8.4882086011        4.6021429597       -0.2851218341
 O        -9.5586486899        4.2281653034        0.1293617348
 C        -7.2264420974        4.9592922978        0.7057918410
 C        -7.1507513373        3.6412699793        1.5908177098
 O        -7.9240874894        3.3928612536        2.4939453527
 C        -6.0907358510        2.5419846176        1.3591410031
 C        -6.6796937197        1.0754448387        1.4048130007
 C        -7.3962977418        0.7660324326        0.0421965836
 O        -7.0375009733        1.3072564612       -0.9802646249
 C        -8.6339497348       -0.1368058486       -0.0720546231
 C        -9.8031031593        0.5356665609        0.7181698230
 O        -9.6885662278        1.0321223867        1.8540829385
 C       -11.2463737840        0.4049408014        0.0772032655
 C       -12.3794360634        0.2768356109        1.0478703482
 C       -12.9693934272        1.6543857169        1.4243664239
 O       -12.3063256037        2.6483721277        1.1648127770
 C       -14.3313981183        1.7481497594        2.1237640622
 C       -13.9238367820        1.3133414679        3.6735726628
 O       -13.3208946661        0.2635899818        3.8528421713
 C       -14.4196960235        2.2826770312        4.7861953905
 C       -13.3069864043        2.3751048660        5.8063072408
 C       -12.0645324662        2.9789092938        5.1294459338
 O       -12.1538200017        3.0795195554        3.9020198909
 C       -10.6775948303        3.2035782463        5.8310438910
 C       -10.3269024147        4.6321844483        5.2702563127
 O        -9.9856013994        4.7625545638        4.1184453072
 C       -10.4880414036        5.9111797546        5.9969150299
 C       -10.7001241335        3.1571458098        7.4679545503
 C        -9.6764150816        2.1004041189        5.4364051812
 C       -14.9016733351        3.2223743556        1.8762105191
 C       -15.4711856764        0.7783514923        1.5921678532
 C        -8.8172881456       -0.4999578180       -1.5717531679
 C        -8.4381534520       -1.4642067640        0.7012566597
 C        -6.0116272440        5.0579236923       -0.2485827776
 C        -7.4645699941        6.2364246047        1.4205762584
 C       -10.9900666800        8.7963183921       -3.0271268895
 C       -12.1101792799        6.5505645170       -2.9367670845
 C        -8.5161805584        3.9774350629       -7.2608287447
 C        -6.4961054859        3.4273960786       -5.7430884589
 H        -4.4164807283        3.9736105351       -7.8215716816
 H        -4.3958602861        4.7193670646       -6.2058167473
 H        -4.0233172259        5.7313176881       -7.7053496824
 H        -8.9607338233        6.6161143900       -6.9586058215
 H        -7.5987871011        7.5350532844       -6.9096661757
 H        -9.3686385910        8.7311995390       -5.5640037830
 H        -8.3579436917        7.9156519622       -4.2468734900
 H        -9.3653862207        5.0070477345       -3.5811411750
 H       -10.5354969681        4.6079030446       -2.2176889677
 H        -7.5408336870        5.3733974341       -2.1236933383
 H        -8.1207625757        3.5803801582       -2.2519165214
 H        -5.4246966019        2.7048901126        2.2331535315
 H        -5.4004947331        2.6697214526        0.5056009153
 H        -7.3966580935        1.0156643378        2.2686214181
 H        -5.9394962309        0.3733864641        1.6061575005
 H       -11.2571792030       -0.2530978646       -0.7638107005
 H       -11.3862391483        1.3523658392       -0.3605419193
 H       -12.0663518962       -0.2243298621        2.0746840587
 H       -13.2506406546       -0.3572861602        0.7449713173
 H       -15.2808732867        1.8363541123        5.3191949377
 H       -14.6566691117        3.2607374469        4.3485168120
 H       -13.1917214852        1.3946546796        6.2436582175
 H       -13.6193977447        3.0860688883        6.6316989149
 H       -11.4977158407        6.3775483446        5.8215444129
 H        -9.8727035823        6.7320233203        5.6135595693
 H       -10.4321115596        5.7261264416        7.0721340295
 H       -11.1399160439        2.2383600252        7.7889398935
 H       -11.3241368627        3.9618455511        7.8329874623
 H        -9.6570460817        3.2154103425        7.8588865816
 H        -8.9081176410        2.1096191925        6.2120596932
 H        -9.3384522156        2.2722667129        4.4325486224
 H       -10.1425109969        1.1123661845        5.5540039153
 H       -15.6849289747        3.5219696141        2.6110929331
 H       -15.3613521887        3.2738191351        0.8915683934
 H       -14.0571442001        3.9152452823        1.8198797465
 H       -16.1848159140        0.6823164164        2.4324007447
 H       -15.0833637472       -0.1103323786        1.1602620484
 H       -16.0062278589        1.3020040967        0.8166667330
 H        -7.8372987484       -0.9279226825       -1.9330385813
 H        -9.0184368167        0.2911246806       -2.3140944389
 H        -9.3909110834       -1.3743772601       -1.7526663782
 H        -7.9090569121       -1.1967553810        1.6478729043
 H        -7.7893871572       -2.1831305735        0.1618764402
 H        -9.3300419291       -1.8316770060        1.0713446979
 H        -5.0826145972        5.1122765343        0.2823091348
 H        -5.9996042696        6.0137076245       -0.7324357509
 H        -6.0004178510        4.2835595545       -0.9863552674
 H        -6.6372987798        6.3828337247        2.1544701511
 H        -8.4374188437        6.2574245081        1.9373437751
 H        -7.3817783009        7.1262224602        0.7331549462
 H       -10.1194073376        9.3845936080       -2.9418475003
 H       -11.6371782985        8.9557794642       -2.2440850539
 H       -11.5927399223        9.0897412811       -3.8263382797
 H       -12.9623832836        7.2094294789       -3.0860245095
 H       -12.0817255229        6.1197829129       -1.9760458445
 H       -12.2703191766        5.7188834347       -3.6018240701
 H        -8.6211531439        4.2372965437       -8.2996788200
 H        -9.3366313295        4.4925750185       -6.7792635500
 H        -8.5466718536        2.9298859538       -7.0455909520
 H        -5.9294273417        2.7089348060       -6.3484087334
 H        -7.1961979532        2.8401889497       -5.0988270130
 H        -5.8019088348        3.9990896093       -5.1235590913
 Na      -10.3348440485        3.2808569780        2.1093859804
