117

 C        -4.6424993348        4.2038323539       -7.5905690977
 C        -6.0028646585        4.7824964304       -7.6367503582
 O        -6.3185351067        5.6606078423       -8.4591128200
 C        -7.1615696708        4.3692559737       -6.5814598740
 C        -7.6254628384        5.7816112168       -5.9356270944
 O        -7.3554606324        5.9976923938       -4.7719333061
 C        -8.4438154495        6.7620492822       -6.7817669522
 C        -9.2472332609        7.7227555453       -5.8352594059
 C       -10.1684159370        6.8229914337       -4.9612929012
 O       -10.3916885693        5.7246908650       -5.3064530708
 C       -10.6135818351        7.3406858878       -3.5295279030
 C        -9.9785223240        6.5406983505       -2.2635901548
 O        -9.6764112082        7.1018971571       -1.2274160512
 C        -9.9458099723        4.9843473377       -2.3961628957
 C        -8.7248814384        4.3543218618       -1.6444938252
 C        -8.6840247467        4.4681294582       -0.1495627972
 O        -9.6729007803        4.3729730273        0.5535954059
 C        -7.2482658509        4.6522653850        0.5885433634
 C        -6.9832260788        3.2566690056        1.3881953381
 O        -7.5398175025        2.9962513357        2.4327691559
 C        -5.9322238095        2.2502514243        0.8944819155
 C        -6.4250411416        0.8026708537        0.9582694664
 C        -7.6058027312        0.7097730934       -0.0673413125
 O        -7.6350975885        1.4310587455       -1.0242988153
 C        -8.7350599344       -0.3942887366        0.2096423946
 C        -9.9328435384        0.4441431730        0.7779024674
 O        -9.6885064599        1.1902889499        1.7105565517
 C       -11.2985662207        0.2854723704        0.0942967616
 C       -12.4552684544        0.3130706767        1.1321226512
 C       -12.8821811777        1.7261530736        1.3408513594
 O       -12.1540048610        2.6801325638        1.1234035631
 C       -14.3519766835        1.9467072764        1.9639217167
 C       -13.9931563504        1.6750067386        3.4721675559
 O       -13.6324286172        0.5291380974        3.7657018042
 C       -14.3562868323        2.7609804607        4.5490193838
 C       -13.3654367901        2.8661499891        5.7098532435
 C       -11.9967942866        3.1843801891        5.1199933518
 O       -11.8222967054        3.1021090282        3.9203594417
 C       -10.7466364507        3.4939556986        6.1198023677
 C       -10.3136378907        4.9880424015        5.6176018409
 O        -9.8029444670        5.0886018648        4.4946305513
 C       -10.2460617533        6.2379348144        6.4245292998
 C       -11.1440511308        3.6417327578        7.6296783617
 C        -9.5843230487        2.5099689704        5.9460925135
 C       -14.8806656824        3.3056097561        1.4425306641
 C       -15.4919029835        0.9433128418        1.6645672152
 C        -8.8599016704       -1.0732844639       -1.1252354701
 C        -8.3921466185       -1.3826462103        1.3355971230
 C        -6.1207988088        5.0236315550       -0.4335476804
 C        -7.3803432811        5.7912163394        1.6641292100
 C       -10.4413551298        8.8797505358       -3.3423977364
 C       -12.1061126681        6.8620940298       -3.4191047652
 C        -8.4475871392        3.7295466182       -7.3140531728
 C        -6.6187383761        3.3729552065       -5.4500362936
 H        -4.6290174401        3.2463323510       -7.1477974634
 H        -4.0841949498        4.9083453988       -6.9339424292
 H        -4.1864324016        4.1787154781       -8.5846876926
 H        -9.1234238510        6.2789439871       -7.4575999856
 H        -7.7013347743        7.2841644716       -7.4182854906
 H        -9.7305884208        8.5303081874       -6.2704830354
 H        -8.5269757378        8.1244735862       -5.1327595498
 H       -10.0035363484        4.7646743470       -3.4617891106
 H       -10.8438044140        4.6658700212       -1.9445436183
 H        -7.8191437382        4.5904831989       -2.1444449012
 H        -8.7693033993        3.2723026425       -1.7898850808
 H        -5.0783930022        2.3487591555        1.5803857760
 H        -5.7571101433        2.4926079592       -0.1357243503
 H        -6.6596986705        0.6120524582        2.0243717118
 H        -5.6235088304        0.1171283713        0.5843597742
 H       -11.3274878656       -0.6680370485       -0.5548765008
 H       -11.3553334378        1.0984668629       -0.7153944515
 H       -12.2581168822       -0.0941733821        2.0988797293
 H       -13.2447424053       -0.2623162388        0.7773817738
 H       -15.2810128157        2.3794235930        5.0190768751
 H       -14.5354488611        3.7137508468        4.0156518845
 H       -13.3597988111        1.8174418415        6.1136525393
 H       -13.6577546019        3.5638004150        6.4577368119
 H       -10.9917256736        6.4393992859        7.2219529216
 H       -10.0689638566        7.1524532261        5.8569644043
 H        -9.3040292687        6.0802328893        6.9594451579
 H       -11.3192554820        2.6927804799        8.0581695559
 H       -12.0046027597        4.2558411506        7.7078104096
 H       -10.3202796973        4.0972753475        8.1840523010
 H        -8.6533758940        3.0745048754        5.8001017243
 H        -9.7683407929        1.8539672350        5.1073628369
 H        -9.6601920528        1.8976045937        6.8530776734
 H       -15.9015351509        3.4868170034        1.7596223737
 H       -14.8439131129        3.2920619105        0.3639033268
 H       -14.2625499943        4.0971179326        1.8359008180
 H       -16.3864093516        1.2361640065        2.2421463940
 H       -15.2483420073       -0.0428914177        2.0148796396
 H       -15.6304322790        0.9841369909        0.6036555848
 H        -7.8458069073       -1.4194887992       -1.4625130371
 H        -9.3480735046       -0.5348047370       -1.9510215305
 H        -9.4867043472       -1.9730302054       -1.0477104007
 H        -7.9805498860       -0.7937315666        2.1797730960
 H        -7.7171834505       -2.2235146481        1.0091679480
 H        -9.2611329911       -1.9180714426        1.6298452152
 H        -5.1571394334        5.0483225597        0.1409801603
 H        -6.3536213154        6.0544792339       -0.7964426998
 H        -5.8181756352        4.4211615068       -1.3065900106
 H        -6.5513875259        5.7105274635        2.3726537259
 H        -8.3073800397        5.7937590832        2.2106476404
 H        -7.3113867073        6.7390815519        1.1233012240
 H        -9.3793113854        9.2281187539       -3.2024454976
 H       -10.9097285267        9.0697153351       -2.3896639473
 H       -10.8330591918        9.4069587397       -4.2265619415
 H       -12.3098723434        5.9930202195       -2.7814872179
 H       -12.4091958966        6.4492467072       -4.3419161105
 H       -12.8368566551        7.6589184181       -3.2891195127
 H        -9.0860625490        4.5895770545       -7.5476288009
 H        -8.9244426870        3.0246645648       -6.6154156703
 H        -8.2184417895        3.2083777925       -8.2438911615
 H        -6.3446613577        2.3902339496       -5.8678354942
 H        -7.3422087168        3.3138759182       -4.6051135838
 H        -5.7574490690        3.8812243572       -4.9688965719
 Na       -9.9454745688        3.4074658118        2.7386081011
