117

 C        -4.8037291880        3.9171780621       -8.5427258330
 C        -6.0656556243        4.4929501091       -8.0097878484
 O        -6.6425636588        5.3019986885       -8.6899878046
 C        -6.7640666820        3.9433309417       -6.7415106084
 C        -7.3461748369        5.0471557139       -5.7690325061
 O        -7.4346795582        4.8217056184       -4.5981448080
 C        -7.6511157978        6.4285369626       -6.3314729800
 C        -8.5480773398        7.2847807437       -5.3495480384
 C        -9.9967445972        6.8242341516       -5.1541805965
 O       -10.6812058708        6.2346125221       -5.9159645904
 C       -10.5641259744        7.3146353426       -3.7458382713
 C        -9.9355102373        6.5011810325       -2.4570048471
 O        -9.1129321906        7.0958775443       -1.7776297184
 C       -10.2019324450        5.0103389590       -2.4475612381
 C        -8.9401522406        4.3600334422       -1.7603518339
 C        -8.8581988836        4.6155645478       -0.2702358113
 O        -9.8138077913        4.4994076793        0.4776591582
 C        -7.3919045520        4.8004640946        0.3248907463
 C        -7.1014387009        3.3582841036        0.9260209095
 O        -7.5727641489        3.0630728100        2.0245673804
 C        -6.3451304477        2.3366898506        0.0301625889
 C        -6.6100251152        0.9242081771        0.4210069671
 C        -8.0464214631        0.4229025966        0.1219304762
 O        -8.6622807879        0.9319872169       -0.7556268486
 C        -8.7491514971       -0.6861927671        1.0824510568
 C        -9.8449338091        0.2318440760        1.8402869527
 O        -9.6403328555        0.7503376083        2.9042535267
 C       -11.1905910791        0.3329951786        1.1553480822
 C       -12.3433736515        0.8131095339        2.0430242858
 C       -12.8751967955        2.1764628896        1.6996180093
 O       -12.1829311220        3.0013380536        1.1504943741
 C       -14.4271883243        2.5285342151        2.0665597941
 C       -14.6255973365        2.4295315261        3.6192953271
 O       -15.0157493630        1.3914196261        4.1249771110
 C       -14.1677427681        3.7162777565        4.3671652988
 C       -13.3756805256        3.5162868025        5.6173192859
 C       -11.8305107313        3.2482603452        5.2153760382
 O       -11.6046307341        2.5532078722        4.2571948138
 C       -10.6539482102        3.7202278514        6.0804635934
 C       -10.1176683745        4.9566777854        5.2086671418
 O        -9.4147760590        4.6001568898        4.2400210418
 C       -10.0148848423        6.3546042056        5.6644263374
 C       -11.0591008016        4.2609623907        7.4199266743
 C        -9.4872081882        2.6955039684        6.0798307161
 C       -14.7811860242        3.8523505429        1.5536590830
 C       -15.4630754256        1.5568362701        1.4349424526
 C        -9.3668084492       -1.8058923580        0.3385675928
 C        -7.7606454031       -1.2636346197        2.2264830618
 C        -6.2688529576        5.2584558157       -0.6941448311
 C        -7.4709126661        5.9380693783        1.4389152515
 C       -10.4016865496        8.8342547775       -3.7749789835
 C       -12.0262092071        6.8990061054       -3.6996436985
 C        -7.9205271414        3.1136727797       -7.3060120215
 C        -5.8388552694        2.9473304415       -5.8526262707
 H        -5.1195871163        2.9071808476       -8.7840862670
 H        -4.0332261638        3.8015799866       -7.6916259211
 H        -4.4095224342        4.5630345204       -9.3846875611
 H        -8.1564335126        6.2950529706       -7.3279770531
 H        -6.6805520810        6.8888182509       -6.5181182191
 H        -8.5230323688        8.3171181180       -5.7183239158
 H        -8.1049724328        7.2979400157       -4.3960712036
 H       -10.2716164198        4.7425462710       -3.4810878477
 H       -11.1013750332        4.7986230586       -1.8760863479
 H        -8.1202188507        4.7383555287       -2.2471629222
 H        -9.1514632483        3.2924592324       -1.8693099001
 H        -5.2562391863        2.4572848196        0.1736621419
 H        -6.3868715166        2.5948531118       -1.0447474913
 H        -6.3018763928        0.8031057636        1.4376807760
 H        -5.9456653539        0.1517215488       -0.1335262585
 H       -11.4434226185       -0.6855506442        0.7494418932
 H       -11.1372095066        1.0881227585        0.2518283917
 H       -12.0580146926        0.7158952522        3.0348077412
 H       -13.1033124483        0.0906225293        1.9071609370
 H       -15.1090783816        4.2763829155        4.6177748423
 H       -13.5176668137        4.2942505989        3.6593059066
 H       -13.6935981815        2.5455897560        6.1395372489
 H       -13.4513129544        4.2829082071        6.3410241012
 H       -10.9619920830        6.7779199375        6.0270893699
 H        -9.6953399965        6.9211664564        4.7908484545
 H        -9.3448320169        6.4433613203        6.5543991440
 H       -11.4396987824        3.5605400807        8.2025389551
 H       -11.7827727942        5.0979861974        7.3726616549
 H       -10.2122574336        4.7406970241        7.9316926679
 H        -8.6140043399        3.0980183506        6.5907638129
 H        -9.2849139977        2.4640693793        5.0482580912
 H        -9.7704509201        1.7638420597        6.5608887478
 H       -15.8284205334        4.0320164217        1.4318241569
 H       -14.3164396886        4.0136221678        0.5651125346
 H       -14.3503340461        4.6370101044        2.1630276858
 H       -16.4542069913        2.0363065600        1.3710251745
 H       -15.6394934076        0.5782739674        1.9090357107
 H       -15.1360787624        1.3636450070        0.4086028790
 H        -8.6628840578       -2.6107959784        0.1823186160
 H        -9.7156643311       -1.3057139129       -0.5713595037
 H       -10.1281325084       -2.3541008093        0.9315967516
 H        -7.6143746343       -0.5091941512        2.9756063491
 H        -6.8141214274       -1.6850806959        1.8308858454
 H        -8.2529271621       -2.0844562819        2.7135196586
 H        -5.3562041135        5.4649767567       -0.1628156389
 H        -6.5796757607        6.1258937696       -1.2143890463
 H        -5.9759815965        4.5543228665       -1.4056408288
 H        -6.4765260538        6.3516614958        1.6872020263
 H        -7.8918934803        5.5629658489        2.3452971508
 H        -8.0879577004        6.7225950973        1.0258668033
 H        -9.3979916207        9.1351226192       -3.5130396499
 H       -11.0111103047        9.1835517247       -3.0148701863
 H       -10.7376055564        9.2364871176       -4.7228936796
 H       -12.1670020933        5.7960295691       -3.8187882314
 H       -12.6641575772        7.3443672603       -4.4038169670
 H       -12.4888794360        7.1740930827       -2.7164489600
 H        -8.8743261888        3.6484714496       -7.4636294936
 H        -8.1152265052        2.2677354297       -6.6597981445
 H        -7.6112855660        2.5962228973       -8.1800956234
 H        -5.9550564375        1.9128352946       -6.1333783824
 H        -6.0678827858        3.1025994745       -4.8311392577
 H        -4.7960848714        3.2175977623       -5.9735160088
 Na      -10.0684466027        3.0950203094        2.4089162849
