117

 C        -4.7053956933        3.8612774367       -8.2412581478
 C        -6.0538728642        4.5672896229       -7.8693013471
 O        -6.3799316096        5.5252148334       -8.5656052100
 C        -6.9310137062        4.0367401847       -6.6227144663
 C        -7.2136861670        5.3739250987       -5.8688678117
 O        -6.5947028676        5.5322766409       -4.8110551465
 C        -8.2311185104        6.4038348096       -6.5040380892
 C        -8.8205777506        7.2859453692       -5.3904523904
 C       -10.1373753692        6.7694128280       -4.9632869674
 O       -10.7524335477        5.8124661163       -5.5076653652
 C       -10.7595130697        7.3118369184       -3.6196256104
 C        -9.9356902060        6.5952682934       -2.5151585363
 O        -9.0461943801        7.1644689751       -1.9090611958
 C       -10.1524263230        5.0306423699       -2.3361714703
 C        -8.9193194714        4.3800226947       -1.6987852579
 C        -8.8688213264        4.5995433178       -0.2187416792
 O        -9.8771329982        4.4743683811        0.4444763829
 C        -7.4805313607        4.8218574063        0.5740001100
 C        -7.1120920889        3.3964971074        1.0491553750
 O        -7.6017640970        2.9128418569        2.0574903336
 C        -6.1594463758        2.4831053699        0.2560584938
 C        -6.4951906911        0.9619787757        0.5240722588
 C        -7.8720648135        0.5415290453        0.0469131208
 O        -8.3589499745        1.1877614025       -0.9053262153
 C        -8.6403556982       -0.6625411387        0.8193883525
 C        -9.8881479680        0.1182012040        1.4250211153
 O        -9.7624029636        0.6077549674        2.5415953076
 C       -11.1466063062        0.3527909197        0.6032565986
 C       -12.4246273439        0.6292621468        1.5133195654
 C       -12.8444286639        2.0600352044        1.5587874748
 O       -12.0578811204        3.0116729571        1.4448287439
 C       -14.3039987399        2.3610999091        2.0126961602
 C       -14.3025212401        2.2457870440        3.5829030573
 O       -14.3255415543        1.1262351051        4.0135706513
 C       -14.2291192749        3.5950268139        4.4876901588
 C       -13.3700719139        3.4412881424        5.7503309653
 C       -11.9578787188        3.3337830004        5.2375159638
 O       -11.8326176521        2.7161955720        4.1747531772
 C       -10.7796341484        3.7167837149        6.0297490340
 C       -10.1918914931        4.8816892209        5.1338274365
 O        -9.7712160309        4.7241204533        4.0363181929
 C        -9.9150463770        6.2837086177        5.7967405105
 C       -11.2030347350        4.0350402810        7.4508234260
 C        -9.6800342527        2.6539090048        6.0395029011
 C       -14.5064242084        3.8094980639        1.6688905488
 C       -15.3475120232        1.4207445585        1.4336012397
 C        -9.1956492018       -1.7078889602       -0.2590025524
 C        -7.8554700557       -1.3245346125        1.9638133278
 C        -6.3915511099        5.3531935084       -0.5001018571
 C        -7.7354948270        5.7063284337        1.8589207306
 C       -10.6655432072        8.8708476775       -3.4425084905
 C       -12.1941022862        6.9534572950       -3.4915434529
 C        -8.1716291105        3.2670493377       -7.2461712414
 C        -6.1648960133        3.0368935067       -5.7234927688
 H        -4.8943340217        2.7167484110       -8.2973976049
 H        -3.8809379443        4.0941463579       -7.5431104883
 H        -4.4456340933        4.2744431424       -9.2422090267
 H        -9.0670491682        5.9259303805       -7.0477512328
 H        -7.5938145583        7.0424856477       -7.1460656222
 H        -8.9402701093        8.3209802577       -5.6936565920
 H        -8.1564176368        7.3417595868       -4.5462628714
 H       -10.2469944444        4.7303880305       -3.3695702837
 H       -11.0872915888        4.7607442911       -1.8549010666
 H        -8.0529019573        4.7287042032       -2.2656658519
 H        -8.8935271420        3.3247502927       -1.8091508108
 H        -5.0861052206        2.7241640275        0.3622739034
 H        -6.4182313381        2.6123535580       -0.8466797945
 H        -6.3795379962        0.6798396232        1.6057229748
 H        -5.7795483536        0.3008819948        0.0092670533
 H       -11.3624830302       -0.5403332336       -0.0744591181
 H       -10.8700754545        1.3183633126        0.0260635427
 H       -12.1874653151        0.3898671585        2.4923329493
 H       -13.1799381603       -0.0105233017        1.1581102989
 H       -15.2036310862        4.1086397233        4.7805638052
 H       -13.8071157866        4.3420531655        3.7716863404
 H       -13.5864987323        2.4990945200        6.1712288837
 H       -13.5327387884        4.1839649915        6.6108953416
 H       -10.7757765964        6.9136510202        6.0288284432
 H        -9.1055532942        6.7363185996        5.2174872100
 H        -9.4460229890        6.1674077285        6.7984160483
 H       -11.6308621351        3.1456246755        7.9576180809
 H       -12.0238878106        4.7698645214        7.5432660549
 H       -10.3496362600        4.4040078561        8.0167614051
 H        -8.7088748497        3.1274815617        6.0681154265
 H        -9.8359074880        2.0209350455        5.1629454567
 H        -9.7587101936        2.1101439573        6.9651155425
 H       -15.3711659977        4.1938888798        2.2356795984
 H       -14.7266073829        3.9893750694        0.6127647937
 H       -13.5956583896        4.3874632553        1.8815286853
 H       -16.3053967195        1.8719629552        1.4034698571
 H       -15.2431576726        0.4624279765        1.9876935224
 H       -15.0814607751        1.1189503745        0.4186538659
 H        -8.4633618631       -2.5158052229       -0.4338692922
 H        -9.4275625376       -1.1854730987       -1.1861863799
 H       -10.0561499837       -2.3060291351        0.1455666674
 H        -7.9921070598       -0.7992359915        2.8912933354
 H        -6.8546564257       -1.3342736162        1.6667625786
 H        -8.2889457449       -2.3433503277        2.1847995369
 H        -5.5352154432        5.7015520970        0.0340458752
 H        -6.7306474306        6.2173361694       -1.0197924708
 H        -6.0664887831        4.6425412119       -1.2275728047
 H        -7.0142006578        5.4464893177        2.6385432404
 H        -8.7845552192        5.5736850769        2.2220272398
 H        -7.5658725385        6.7559174267        1.5993720929
 H        -9.7496417130        9.1660322707       -3.8279524135
 H       -10.6385988988        9.1127463084       -2.4007554029
 H       -11.4830232518        9.3796860841       -3.8753959339
 H       -12.3671384941        5.9186560089       -3.5995304735
 H       -12.7170728499        7.4398947801       -4.3320286451
 H       -12.6864330117        7.1259008392       -2.5721913254
 H        -8.6266510313        3.9153061195       -7.9735248459
 H        -8.9475666911        3.1978999703       -6.5133624051
 H        -7.8873595166        2.2965285851       -7.6817837139
 H        -5.7151135868        2.2373198140       -6.2970608496
 H        -6.9574035062        2.6380546832       -5.0984964159
 H        -5.4693786499        3.5164368059       -5.0555308347
 Na       -9.9245820409        2.9655848433        2.4884505204
