117

 C        -4.8013962768        4.1029116917       -8.6512978162
 C        -6.2284976777        4.3632190276       -8.1963360658
 O        -6.8790450075        5.2813336302       -8.7470393909
 C        -6.7694598328        3.6235790854       -6.9114898296
 C        -7.5067028791        4.6602404373       -6.0178772455
 O        -8.2139200047        4.3383328808       -5.0745934297
 C        -7.2658682431        6.2137680744       -6.3074201854
 C        -7.8583161283        7.0638477273       -5.1419817880
 C        -9.4501469117        6.9072910132       -5.1424300686
 O       -10.0651749118        6.5311637959       -6.0859396843
 C       -10.1803950596        7.2316383651       -3.7807990337
 C        -9.8202449706        6.2347517057       -2.6490814402
 O        -8.9500504261        6.5680416985       -1.8842303734
 C       -10.4539905769        4.8926906342       -2.7054904441
 C        -9.5632742117        3.8581622141       -1.9322069377
 C        -9.1352067530        4.1826723633       -0.4709330054
 O        -9.8978974244        4.1879278376        0.4722668012
 C        -7.6061639844        4.3068767709       -0.0997170200
 C        -7.3456360893        2.9886479762        0.6602239593
 O        -7.9871766976        2.7038671989        1.6430072814
 C        -6.2481946426        2.1204630906        0.0770644997
 C        -6.4854181801        0.6645657051        0.5640481519
 C        -7.9516627313        0.2359570499        0.3967732923
 O        -8.5546834150        0.5721474259       -0.6095062069
 C        -8.7948719640       -0.6050115539        1.5556647259
 C        -9.8735234561        0.3702732500        1.9845171757
 O        -9.6403835361        1.2009664074        2.8482828168
 C       -11.2413975166        0.3704776166        1.2392115651
 C       -12.4403330337        0.7412464722        2.1418477485
 C       -13.0369035105        2.1071230082        1.7824020053
 O       -12.3186465276        2.8710221098        1.1490762071
 C       -14.4999753750        2.6359255466        2.2114156012
 C       -14.4090259578        2.8796481247        3.7209199917
 O       -14.3649931175        1.9074592855        4.4181612077
 C       -14.3293798816        4.3486238483        4.2319761281
 C       -13.3883493090        4.4898407894        5.4514904529
 C       -11.9548562053        3.8077218825        5.2039401602
 O       -11.8524726939        2.9984319457        4.2852994239
 C       -10.6548553405        4.0708148577        6.1887114057
 C       -10.0766852765        5.3979511475        5.5422299904
 O        -9.8874792236        5.5487195052        4.3612474574
 C        -9.7976956189        6.5990585936        6.4641154056
 C       -11.0607674395        4.2651510851        7.6954567502
 C        -9.5763971449        3.0092386056        5.9586391480
 C       -14.7491412851        3.6977751376        1.2521623686
 C       -15.3791983796        1.3616306780        2.1217793209
 C        -9.3547330481       -1.8518691087        0.9006279170
 C        -7.9228492382       -0.9633456046        2.7546554153
 C        -6.7145514397        4.4473471295       -1.3706592991
 C        -7.3554639765        5.5618024345        0.7733115383
 C        -9.8039380619        8.6657482471       -3.4663390966
 C       -11.6693182475        7.2054843264       -4.0719901188
 C        -7.8497418930        2.5618377482       -7.4213198080
 C        -5.6441689698        3.0000998442       -6.0198769170
 H        -4.5623272910        3.0414049807       -8.7546075043
 H        -4.2324392238        4.6688457331       -7.9727968169
 H        -4.7377243217        4.5431332021       -9.6644306828
 H        -7.6268444545        6.5758946474       -7.2731844809
 H        -6.1401367845        6.2670171708       -6.4716971453
 H        -7.5154018293        8.0871093966       -5.2922019000
 H        -7.3856828085        6.7679217542       -4.1390046140
 H       -10.7846017297        4.6024642113       -3.7401722483
 H       -11.3819726350        5.0532873401       -2.1439978154
 H        -8.7108514889        3.5845588649       -2.6178879841
 H       -10.1990090844        3.0057387490       -1.8997366494
 H        -5.1785274514        2.4538387225        0.3260926964
 H        -6.3446048784        2.1731819671       -1.0135548550
 H        -6.4269821769        0.6514848711        1.7104680884
 H        -5.7819828900       -0.0167470958        0.1256460945
 H       -11.4730275979       -0.6660778155        0.7797014598
 H       -11.2115315260        1.0001276099        0.3211283942
 H       -12.1992883144        0.7372307087        3.1492233811
 H       -13.0915129791       -0.0683493141        2.1512753718
 H       -15.3670178806        4.6579888103        4.5111547140
 H       -14.0292108438        4.8715962287        3.2607317838
 H       -13.8326267882        3.8991795077        6.2477520382
 H       -13.2267342478        5.4904483502        5.8544686770
 H       -10.7433262976        6.9362170162        6.9245590635
 H        -9.5576195640        7.4998330728        5.9151797785
 H        -9.0087667022        6.3420331998        7.1666924024
 H       -11.3443457215        3.3275192344        8.1405588811
 H       -11.9237766108        4.9113194002        7.8609920131
 H       -10.2243325601        4.7091216925        8.2758199457
 H        -8.5670508610        3.3065684127        6.2435050994
 H        -9.4869563721        2.7460003881        4.8935022017
 H        -9.8049886173        2.0886298775        6.4932060285
 H       -15.7188013086        4.2077239940        1.3980416282
 H       -14.7192598045        3.2222603125        0.2923585308
 H       -13.9620152995        4.4421870829        1.2871018443
 H       -16.4377195083        1.5985088023        2.1936196281
 H       -15.0207542935        0.5721093363        2.7971274968
 H       -15.2749793601        0.8206837967        1.1699732432
 H        -8.4694628262       -2.2844788473        0.4091119427
 H        -9.9971646885       -1.5417102771        0.0901884257
 H        -9.9672331375       -2.4425258970        1.5650048875
 H        -7.4559834715       -0.1207893448        3.2758929651
 H        -7.1429160927       -1.6407359632        2.5202131176
 H        -8.6232988222       -1.3911777734        3.4901561783
 H        -5.7072686383        4.4874969727       -0.9754326612
 H        -6.8629809626        5.4596138860       -1.7797070766
 H        -6.8335813162        3.6869918223       -2.1859197060
 H        -6.2963130522        5.6198816407        0.8593927752
 H        -7.8284406602        5.4856451401        1.7696741789
 H        -7.6803314375        6.4882545443        0.3051731293
 H        -8.7197221200        8.7396327723       -3.2449123994
 H       -10.3953182388        9.0486103853       -2.5532204588
 H       -10.1096321432        9.3108144007       -4.3234567848
 H       -12.1435106859        6.2228638927       -4.1440135545
 H       -11.7812244037        7.8004073401       -5.0434110866
 H       -12.1594382133        7.7798867984       -3.2711102066
 H        -8.7332151036        3.0622065513       -7.7984604169
 H        -8.2935681898        1.8636617532       -6.6979633770
 H        -7.5106823054        1.9896977044       -8.3362236028
 H        -4.9079811052        2.4484022830       -6.6156117727
 H        -6.0820866100        2.2727030839       -5.2776546448
 H        -5.1017459061        3.7458239448       -5.4245052445
 Na      -10.1470565834        3.6003213662        2.5760363459
