117

 C        -4.7853133482        4.0675521199       -8.7806849831
 C        -6.2126377573        4.3682955353       -8.2775722551
 O        -6.9796684719        4.9638877432       -8.9657911697
 C        -6.7784899365        3.6060100814       -7.0000680698
 C        -7.5475894543        4.6643326872       -6.0628818536
 O        -8.1116390259        4.2296217386       -5.0684584607
 C        -7.2647610456        6.1930114800       -6.2456243870
 C        -7.7863220648        7.0815880448       -5.1261737269
 C        -9.2772656166        6.9710134079       -5.0769032163
 O        -9.8913353411        6.6682082652       -6.0965393249
 C       -10.1225778598        7.2912893509       -3.6706787753
 C        -9.6778604283        6.1919716564       -2.6892514468
 O        -8.8658840958        6.4308545721       -1.8023810079
 C       -10.4446955483        4.8888116417       -2.6138663027
 C        -9.7879393621        3.7364088485       -1.9211638242
 C        -9.3343651754        4.1153032468       -0.5638897359
 O       -10.0868646740        4.3108034234        0.3722998088
 C        -7.7369154382        4.2935795649       -0.2352799677
 C        -7.3217055676        3.0966154881        0.6083452391
 O        -7.8815003894        3.0011721462        1.7124174045
 C        -6.3432140482        1.9614385062        0.0433160992
 C        -6.5343254920        0.6455174445        0.7947936974
 C        -7.9514002538        0.0376236428        0.4767903008
 O        -8.5151012380        0.2407374804       -0.5904558941
 C        -8.8018418223       -0.6369777885        1.6636746252
 C        -9.9223064880        0.3418435447        2.0917915346
 O        -9.6936822280        1.1823680908        2.9667512039
 C       -11.1797501668        0.4253863970        1.3414827669
 C       -12.3613534268        0.9281937786        2.1806032549
 C       -13.0135421967        2.1393015653        1.6298924045
 O       -12.3587781624        2.8867817489        0.9483417225
 C       -14.4820943460        2.5262830636        2.2637272001
 C       -14.2462818472        2.9759398768        3.7484833976
 O       -14.2966405767        2.1331241680        4.6291781823
 C       -14.1250912792        4.5145033229        4.2632099405
 C       -13.3368097938        4.4057606724        5.5527292535
 C       -11.9789578109        3.8491694149        5.2322200037
 O       -11.7786198384        3.3308855236        4.1526626546
 C       -10.8089253813        4.1283420725        6.1848800144
 C       -10.1190166448        5.4311726664        5.3675007388
 O        -9.8397785448        5.4683705413        4.1585625252
 C        -9.7151966337        6.5590622793        6.1859613980
 C       -11.1631348143        4.3295306989        7.7393353892
 C        -9.6972376002        3.0866776440        5.9829707584
 C       -15.0884547563        3.6620185788        1.3606466167
 C       -15.5467519727        1.4210068779        2.1205943115
 C        -9.3147629214       -1.9835798705        1.0149300636
 C        -7.9458437391       -1.0210634844        2.9028850621
 C        -6.8278479340        4.5017104291       -1.5661950316
 C        -7.5689882350        5.5821357546        0.6080334137
 C        -9.7153306493        8.6616849371       -3.1644969320
 C       -11.6122811264        7.1388400301       -4.0085371476
 C        -7.5848785286        2.5032962383       -7.6105197945
 C        -5.7372623655        2.9193055937       -6.0657330380
 H        -4.8360644280        2.9603107525       -8.9247165817
 H        -4.0509528759        4.4488392505       -7.9829764967
 H        -4.6509638374        4.5032542998       -9.7575573723
 H        -7.6077877151        6.4949265778       -7.2404815234
 H        -6.2218159491        6.2399068160       -6.3916847339
 H        -7.3530228958        8.0754216075       -5.2462998934
 H        -7.3866381947        6.7209787728       -4.2384050269
 H       -10.7903520610        4.6806297713       -3.5897412998
 H       -11.3930972573        5.1234431698       -2.1147430996
 H        -9.0749026219        3.2593326559       -2.5872478434
 H       -10.5821941277        2.9102854692       -1.9311012483
 H        -5.3776532269        2.3229159418        0.2865841477
 H        -6.4285182308        1.7777020144       -1.0254289119
 H        -6.4637970825        0.7595075978        1.8389711026
 H        -5.7517517997       -0.0912248751        0.4353646996
 H       -11.3201124924       -0.4790151181        0.8300387673
 H       -11.1100193660        1.1755343898        0.4980125966
 H       -12.0818793829        1.0714227254        3.3011212773
 H       -13.1112612639        0.0906108907        2.3621998707
 H       -15.1208692599        4.9185128555        4.4037064951
 H       -13.6446064078        5.0956859986        3.5309067863
 H       -13.7922029722        3.8262111726        6.4124696884
 H       -13.1919896373        5.4484142157        5.9413178226
 H       -10.4886398839        7.0747040536        6.7384518974
 H        -9.3757925819        7.3209277513        5.4321591225
 H        -8.8211204581        6.2597419293        6.7195375455
 H       -11.6315297126        3.3820036472        8.0996781315
 H       -11.9972991720        5.0500491573        7.8482807819
 H       -10.3531657595        4.7378328069        8.3696728255
 H        -8.7007487580        3.4259662442        6.2569331854
 H        -9.6616603359        2.8378761999        4.9397607764
 H        -9.8133059282        2.1426949440        6.5069517432
 H       -15.6473326445        4.3802908738        1.9159234997
 H       -15.7902376215        3.2301574170        0.6328497166
 H       -14.2588769405        4.1378785844        0.8439782297
 H       -16.5248332820        1.8660164631        2.3581584115
 H       -15.3338853085        0.5273153226        2.6378003665
 H       -15.5314259436        1.0082748929        1.1169169412
 H        -8.5428328616       -2.7453003786        1.1830043849
 H        -9.5189678963       -1.8023885244       -0.0666301642
 H       -10.2952496167       -2.2523935243        1.4548951848
 H        -7.5686158740       -0.0944077956        3.3397089611
 H        -7.0225358906       -1.5193973343        2.5382501621
 H        -8.3903249160       -1.5007847628        3.7226247624
 H        -5.8100564668        4.6109517376       -1.2578423363
 H        -7.0919470702        5.3846486444       -2.0756175156
 H        -6.8676218887        3.6608521711       -2.2292928603
 H        -6.8348828097        5.4638111011        1.4135104926
 H        -8.4930907861        5.8014099181        1.0658864083
 H        -7.2783876138        6.4169767307       -0.0115172991
 H        -8.6542658357        8.8438004158       -3.0861498188
 H       -10.1300446371        8.8438954293       -2.2179802906
 H       -10.2317333113        9.3268573469       -3.8093997363
 H       -11.7918866975        6.5025323729       -4.9003044090
 H       -11.8866128125        8.1413453136       -4.2293879368
 H       -12.1916466305        6.6972834432       -3.1648292044
 H        -7.9939435132        2.7419901840       -8.6069088985
 H        -8.5216558118        2.2463424183       -7.1131244408
 H        -7.0157758925        1.6020220668       -7.6997745064
 H        -5.1704565233        2.1581667830       -6.5902606538
 H        -6.1248907744        2.5226669721       -5.1683850568
 H        -5.0421825869        3.6872986162       -5.7258088119
 Na      -10.0012226547        3.6555518929        2.7027791728
