117

 C        -4.9679133301        4.1015621222       -9.0840928841
 C        -6.3014858868        4.2196221264       -8.3854275877
 O        -7.2709385121        4.7747123768       -8.8506557553
 C        -6.5729184837        3.4917012956       -6.9996085548
 C        -7.3651256818        4.3619256225       -6.0064496933
 O        -7.9659400737        3.8112268768       -5.0900080276
 C        -7.2290460804        5.9053129106       -6.0910860613
 C        -7.9120479351        6.5728268482       -4.9067817178
 C        -9.3757437616        6.9205162107       -5.1182569197
 O       -10.0720207986        6.5875923179       -6.0580756401
 C       -10.1631962687        7.5197280058       -3.8496188119
 C        -9.7410828326        6.4827058226       -2.6214187881
 O        -9.0418762818        6.8103947071       -1.6721059834
 C       -10.2902629605        5.0062956424       -2.8522709884
 C        -9.1935615278        4.0050813328       -2.3984071159
 C        -8.9433392862        3.9655696903       -0.8851739105
 O        -9.8533639998        4.1416100443       -0.0826203186
 C        -7.4949740017        3.8636942690       -0.3296360719
 C        -7.3912158458        2.6631189149        0.6714696947
 O        -7.7597526209        2.7543132465        1.8279247948
 C        -6.7921337044        1.3864370887        0.1779394392
 C        -6.8603990224        0.2564589977        1.1686992604
 C        -8.2067600925       -0.5336596081        1.0421915166
 O        -8.5236093218       -1.0206828840       -0.0343493686
 C        -9.1559085931       -0.7001785824        2.3501677194
 C       -10.0171231354        0.5596280134        2.5071879668
 O        -9.7392150117        1.3866582665        3.3693867096
 C       -11.1057783475        0.8698272384        1.4003191469
 C       -12.5071961283        1.0794035546        2.0280829785
 C       -13.1466269322        2.4375392490        1.8561059389
 O       -12.5680148948        3.3455872599        1.3169965171
 C       -14.6029603766        2.4978678196        2.4779503532
 C       -14.3846031095        2.8589834845        4.0058326994
 O       -14.1582361666        1.9367652675        4.7721383692
 C       -14.4252905818        4.3770218133        4.4061346204
 C       -13.2998816676        4.6604668885        5.3596906350
 C       -11.9250457456        4.7608269564        4.7511905124
 O       -11.8857895299        4.7847195733        3.5193832311
 C       -10.6003371964        4.7885407103        5.6866087515
 C        -9.4725637170        5.4429534559        4.7752599481
 O        -9.1831186256        5.0271066270        3.6740524400
 C        -9.0314691180        6.9212409498        5.1955504642
 C       -11.0511446491        5.5381086887        7.0214252370
 C       -10.1085397801        3.3966317412        6.1054909222
 C       -15.3654116820        3.6406578896        1.6937284141
 C       -15.4355468620        1.2864228104        2.3602298007
 C        -9.9841441148       -2.0992277432        2.1170360499
 C        -8.4361741489       -0.8550351091        3.6534472482
 C        -6.4185700658        3.7883636974       -1.3523698793
 C        -7.2608252714        5.2337980092        0.4847133983
 C        -9.6499752901        8.9436725339       -3.4774561376
 C       -11.6583261052        7.5790763316       -4.0444803376
 C        -7.5883014224        2.3306484220       -7.3777170528
 C        -5.2814448683        2.8936825553       -6.2572884265
 H        -4.9826171731        3.0812869741       -9.5352787477
 H        -4.0773122678        4.1533527954       -8.3249158791
 H        -5.0095517611        4.8949706653       -9.7971179530
 H        -7.6141375201        6.2022175641       -7.0189138996
 H        -6.1464424057        6.0330905322       -6.0101044191
 H        -7.2445014899        7.2931215996       -4.5542677650
 H        -7.8909491762        5.7820314948       -4.1514018629
 H       -10.5089711325        4.9927346133       -3.9081108206
 H       -11.1460921783        4.8197234520       -2.2131351977
 H        -8.3045806670        4.2416104721       -2.8798262215
 H        -9.5979389445        2.9893605955       -2.6758200849
 H        -5.7661972124        1.7038431901        0.2406092652
 H        -7.0568839223        1.1155199179       -0.8263396407
 H        -6.6591455290        0.6639061606        2.1585803301
 H        -6.0726244589       -0.4720819235        1.0125488560
 H       -11.1203331352       -0.0066966876        0.6724379625
 H       -10.8740183605        1.8182878876        0.8956533734
 H       -12.3458252798        1.0463752420        3.1555711008
 H       -13.1963634024        0.2367148547        1.6185969935
 H       -15.4223345651        4.6093150860        4.7904693539
 H       -14.2842868812        4.9295731958        3.5040654804
 H       -13.2470007050        3.9487838996        6.1751249687
 H       -13.6273876930        5.6500465222        5.8341072450
 H        -9.8930715184        7.3253299344        5.6600217732
 H        -8.6664018249        7.4121788409        4.2944624641
 H        -8.3192814072        6.9727094571        6.0649466834
 H       -11.8198228805        4.8319215622        7.4436243385
 H       -11.4553067950        6.5393565460        6.7791045616
 H       -10.1969069534        5.4915782079        7.6626660954
 H        -9.5051917540        3.4468425017        7.0008509554
 H        -9.4110987796        3.0044444906        5.3885337763
 H       -10.8445956213        2.6182807518        6.2779986341
 H       -16.3066580578        3.8555123391        2.1306005428
 H       -15.4258809825        3.3945518208        0.6514519411
 H       -14.7285682169        4.5042825517        1.7452369224
 H       -16.4510920109        1.5761463408        2.5776716883
 H       -15.1915442555        0.5629026947        3.1884559565
 H       -15.5307026633        0.8573973045        1.3564660619
 H        -9.5423049173       -2.9484123117        2.6209070951
 H        -9.9389384609       -2.4202401019        1.1054151750
 H       -11.0675971954       -1.9948281142        2.4178985130
 H        -8.0633874260        0.0651016211        3.9985615950
 H        -7.5655857307       -1.4701351739        3.6266219905
 H        -9.0678171164       -1.2413486317        4.4683900579
 H        -5.3883986391        3.7716706743       -0.9230040445
 H        -6.5180153840        4.6706158197       -1.9739049438
 H        -6.5899739591        2.9510283691       -1.9434765424
 H        -6.6858741672        5.0612321400        1.3677530054
 H        -8.2214250071        5.6066941037        0.7773023808
 H        -6.8332605213        6.0168385781       -0.1092536548
 H        -8.5492285801        9.0886043586       -3.3840057360
 H       -10.1969712944        9.2399369892       -2.6031565767
 H        -9.9293672619        9.6613256552       -4.2985105381
 H       -12.0350619020        6.5532167417       -4.2962431586
 H       -11.8721055970        8.2749172277       -4.8431825937
 H       -11.9796105484        8.0635587536       -3.0921328075
 H        -8.3327122029        2.5699038207       -8.1719989315
 H        -8.0949067029        1.8997387292       -6.5092000073
 H        -7.0546824735        1.5005113192       -7.8721817337
 H        -4.8427075123        2.0867909376       -6.8686177053
 H        -5.5428678948        2.4241044963       -5.2930724778
 H        -4.4739430985        3.6262767671       -6.1713246014
 Na      -10.2142491002        3.5045738644        2.1019355495
