117

 C        -4.8091304243        4.0615695287       -8.8486629671
 C        -6.2059117458        4.2566896102       -8.2800303742
 O        -7.0941347076        4.7921270087       -8.9407540776
 C        -6.6360084477        3.5281285185       -7.0226932447
 C        -7.4480987384        4.4541432330       -6.0735352243
 O        -8.0592835651        4.0539226606       -5.1152725539
 C        -7.1846017124        6.0483362092       -6.1929109314
 C        -7.8502172596        6.8056597832       -5.0372617339
 C        -9.3792302631        7.0138815822       -5.1394539535
 O        -9.9745525083        6.9213417072       -6.1566096222
 C       -10.1241545530        7.3333848342       -3.7229802397
 C        -9.9807191809        6.2598514507       -2.6361581169
 O        -9.1957850792        6.4208769981       -1.7401269708
 C       -10.5594802416        4.8514937298       -2.8418853071
 C        -9.5978455999        3.7428028307       -2.1963682379
 C        -9.1817702502        4.1256143780       -0.7734471114
 O       -10.0252272755        4.1912268220        0.0966652203
 C        -7.5832379380        4.3054211198       -0.2981641759
 C        -7.3246118724        3.1050085255        0.6900711838
 O        -7.7387242924        3.2022464071        1.8162041342
 C        -6.5393751516        1.8040930144        0.2090922098
 C        -6.8741976337        0.5654380932        1.1919244279
 C        -8.1022604403       -0.2872261880        0.8429539792
 O        -8.5208036167       -0.4533824614       -0.2664475277
 C        -9.0242746277       -0.8738621107        2.0283669451
 C        -9.9144961965        0.4462351413        2.2929189823
 O        -9.5431689207        1.2565156624        3.1289941317
 C       -11.1842006184        0.7404692241        1.4849043034
 C       -12.4710271707        0.9882309086        2.3514071559
 C       -13.1814155204        2.1556849601        1.8318724576
 O       -12.6427696537        2.9863662154        1.1119308446
 C       -14.6079316140        2.5480317905        2.3005486536
 C       -14.5437466433        2.8444059665        3.8124440046
 O       -14.3714032418        1.8874959767        4.5275140646
 C       -14.4123433616        4.3660824786        4.3129730215
 C       -13.2642622973        4.6239531490        5.3178060760
 C       -11.8625991443        4.2204075403        4.8681709183
 O       -11.7947285916        3.6308896886        3.8224316825
 C       -10.6309670347        4.5248883638        5.8684986324
 C        -9.5932610423        5.5163648672        5.1589883363
 O        -9.0721884584        5.1875981815        4.1136673421
 C        -9.2159931211        6.8068242091        5.8244786875
 C       -11.0505831526        5.0781945937        7.3266848350
 C        -9.7317931216        3.2241817015        5.8979567082
 C       -15.1081150202        3.7016926943        1.4609425564
 C       -15.4955322006        1.2038742926        2.1218938695
 C        -9.7993914281       -2.1044464917        1.5115128451
 C        -8.2780182197       -1.0990483583        3.3908258694
 C        -6.6743429474        4.2153166289       -1.4954184635
 C        -7.5296307583        5.5843497678        0.5119893111
 C        -9.3990428398        8.5986723872       -3.1715226806
 C       -11.6768817841        7.6478694443       -4.1297234620
 C        -7.6545210432        2.4955381934       -7.5786555215
 C        -5.4607373392        2.9070714660       -6.2161732128
 H        -4.5769401961        2.9550228164       -8.8519385252
 H        -4.1084593738        4.6437346431       -8.2661489445
 H        -4.9339662062        4.5523084826       -9.8830519902
 H        -7.4720664478        6.4857763980       -7.1240733912
 H        -6.1020855278        6.0741177440       -6.1597212546
 H        -7.3459736139        7.7343443488       -5.0520780587
 H        -7.5052877251        6.3578552491       -4.1239220083
 H       -10.7537722265        4.6835003071       -3.9064491573
 H       -11.5307060363        4.8439469641       -2.3936874759
 H        -8.8058401961        3.5371956247       -3.0002065778
 H       -10.1181177369        2.7782615151       -2.2284647226
 H        -5.4548125449        1.9753550002        0.2629510948
 H        -6.9151235364        1.5972471402       -0.7278265611
 H        -7.0623535067        0.9197069176        2.2415531694
 H        -6.0501474144       -0.1199382463        1.2660411207
 H       -11.3710263971       -0.0521100920        0.7236626051
 H       -10.9502345272        1.6423384591        0.8975945011
 H       -12.1495004933        1.1788241150        3.4751422234
 H       -13.0197645348       -0.0149606612        2.4088117091
 H       -15.3003404579        4.6509405093        4.7548324225
 H       -14.4703667227        4.8742876102        3.3592931915
 H       -13.5111387691        3.9399388008        6.2149623197
 H       -13.2809497920        5.6321507990        5.7323449591
 H       -10.1647644563        7.4055434292        5.6822281119
 H        -8.3463811895        7.1879193707        5.3009518382
 H        -9.0188254721        6.7768352928        6.8964303991
 H       -11.7457776735        4.3858774855        7.8154020390
 H       -11.4285976896        6.1299657215        7.2858059703
 H       -10.0760960333        5.0347233643        7.9179885216
 H        -8.8233771879        3.4282082235        6.4368158105
 H        -9.4796144660        2.8736087032        4.9034243670
 H       -10.1443683516        2.3463004515        6.3481872114
 H       -16.1645838626        3.8248399803        1.7024764870
 H       -15.0795526913        3.4054677618        0.4506983235
 H       -14.4974741755        4.5686759744        1.5590162029
 H       -16.5133634980        1.3914801382        2.4634740811
 H       -15.2305578935        0.4195406782        2.8233830269
 H       -15.4485489648        0.8556010732        1.0991941128
 H        -9.2181637594       -2.9495056340        1.1193026551
 H       -10.5875353899       -1.7860632789        0.8311606549
 H       -10.1436439123       -2.5974895829        2.3848804969
 H        -7.7220308486       -0.2820905691        3.8300488326
 H        -7.6266106748       -1.9285731964        3.3081536890
 H        -8.9348489546       -1.4693204868        4.1728582948
 H        -5.6998711133        4.3072555703       -1.1466957402
 H        -6.9046612321        4.9752048427       -2.2046424428
 H        -6.7135438427        3.2388117028       -1.9895496557
 H        -6.5409347863        5.9513923835        0.5378958334
 H        -7.7399791463        5.4191190729        1.5565022556
 H        -8.1756989300        6.3207849471        0.0981093156
 H        -8.4665079777        8.2225702920       -2.7992079923
 H        -9.8909143066        9.0891242938       -2.2964876153
 H        -9.1917519505        9.3189630972       -3.9453518368
 H       -12.1823507515        6.7174841036       -3.8842312398
 H       -11.6933365240        7.7981988611       -5.2686621023
 H       -12.0375354855        8.4767781995       -3.5201828606
 H        -8.6073276452        2.9790248428       -7.6322257286
 H        -7.8030560404        1.5862537701       -6.9913077008
 H        -7.3590696058        2.0176682934       -8.5278600853
 H        -5.1208922298        2.0006675746       -6.7132637991
 H        -5.8014230707        2.5842224807       -5.2063532840
 H        -4.6012476316        3.5735360458       -6.1019504802
 Na      -10.0081589531        3.7628309967        2.4876179048
