117

 C        -5.2059189414        3.7898849147       -9.5992494497
 C        -6.4873441999        4.0171493235       -8.6919241417
 O        -7.4047134272        4.5909276656       -9.1881059868
 C        -6.4866684887        3.5578594707       -7.2198381755
 C        -7.1945748536        4.5740617296       -6.2256627017
 O        -7.5118850171        4.1954789862       -5.1262110454
 C        -7.2309204552        6.0795077993       -6.5762058275
 C        -7.9819179880        6.9397452572       -5.5355198332
 C        -9.3676011647        6.7083799903       -5.1525001551
 O       -10.0389128249        5.9642411285       -5.8664587250
 C        -9.9902010247        7.3939540104       -3.8029189748
 C        -9.5050530582        6.2466837551       -2.8220110392
 O        -8.5900899281        6.4567374381       -2.0379251431
 C       -10.1299026962        4.8510633375       -2.9066551408
 C        -9.0783056038        3.8288053017       -2.3232424480
 C        -8.9097682040        3.9254106050       -0.7767031003
 O        -9.8595577129        4.1865984158       -0.0567695699
 C        -7.4187086574        3.3702718875       -0.0985340856
 C        -7.6857977798        2.0743225073        0.7010314991
 O        -8.5562944744        1.9997551644        1.5655864484
 C        -6.8602699816        0.8478876793        0.4628892571
 C        -7.1062233989       -0.2837468747        1.3990968469
 C        -8.5873912463       -0.5991971235        1.3949014805
 O        -9.1941493110       -0.7612346042        0.3818943278
 C        -9.4109717392       -0.5769793654        2.7923888401
 C       -10.6587250599        0.3458079349        2.5946927148
 O       -10.8312978303        1.2807047397        3.3454640255
 C       -11.6650150255        0.0398010933        1.3774431299
 C       -13.0210696163        0.5753867634        1.7479591393
 C       -13.2010701940        2.1203280087        1.8823678273
 O       -12.4594318612        2.9704186233        1.3695018132
 C       -14.4666067112        2.5964465677        2.6586010105
 C       -13.9496848412        3.2314595926        4.0052355587
 O       -13.4011520803        2.4689146712        4.7377343800
 C       -14.2629283865        4.7451249391        4.3779276942
 C       -13.1921826781        5.2916812119        5.2547579150
 C       -11.8632527982        5.2261991185        4.5294452867
 O       -11.8389761920        5.0575007215        3.3405092687
 C       -10.5725267053        5.4527070483        5.4243527170
 C        -9.3856058722        6.1089522340        4.6309495970
 O        -8.9964729569        5.5983660450        3.5736874514
 C        -8.6684761314        7.3523224380        5.0738200250
 C       -10.9126885385        6.3562964510        6.6506541738
 C       -10.2406315919        3.9538620658        5.8451114261
 C       -15.2745063397        3.4828537443        1.7529228900
 C       -15.4449753241        1.3677942650        3.0687269684
 C       -10.0314361293       -2.0492919303        3.1502308175
 C        -8.5359210632        0.0550447340        3.8887110023
 C        -6.3383204020        3.2030244122       -1.2014702745
 C        -7.0000983877        4.4774560069        0.9106945594
 C        -9.1964478989        8.7000356637       -3.4313707571
 C       -11.5026454764        7.5085724807       -3.8309371984
 C        -7.2405196426        2.1797509615       -7.0448946434
 C        -5.0149987672        3.3818950621       -6.6123216777
 H        -4.3197063967        3.5356173707       -8.9851973956
 H        -5.0653140536        4.6551172309      -10.2712021873
 H        -5.3855450841        2.7954747740      -10.1115141135
 H        -7.7395949462        6.1641691273       -7.5575217307
 H        -6.1947819958        6.4012283742       -6.6150870792
 H        -7.9023242634        7.9596150299       -5.9851952057
 H        -7.3811853023        7.0484372419       -4.6735478649
 H       -10.3381955487        4.7301763387       -3.9641869598
 H       -11.0625934450        4.6952827482       -2.3773830955
 H        -8.0708221365        4.0525524037       -2.8140261483
 H        -9.4509076720        2.8532157487       -2.5244896844
 H        -5.8297195614        1.0659199021        0.3205448650
 H        -7.1422429530        0.5414735651       -0.5784318275
 H        -6.7757838271        0.0749221836        2.3789323646
 H        -6.4868771982       -1.1476457335        1.0964437188
 H       -11.6115294366       -1.0102786873        1.0831548206
 H       -11.2275200755        0.5911223090        0.4405193255
 H       -13.3604601009        0.1631391745        2.7851545251
 H       -13.8831538014        0.1571952396        1.1013626377
 H       -15.1845664458        4.7984883319        4.9440303576
 H       -14.3112596274        5.2243563468        3.4116848611
 H       -13.1434144437        4.6999814450        6.2149127062
 H       -13.4982991045        6.3507993703        5.5190878229
 H        -9.3618577042        8.2192477019        4.9556527671
 H        -7.9211775471        7.6306213553        4.3509952299
 H        -8.1525162580        7.1823952884        5.9945152469
 H       -11.0685598956        5.7676919530        7.5295602546
 H       -11.6817711432        7.0764229687        6.4495692229
 H        -9.9783873905        6.9114664531        6.8761697248
 H        -9.6055892406        3.9289746618        6.7440832993
 H        -9.6834149895        3.4209287312        5.0539814192
 H       -11.0786404321        3.2949695294        6.0592914688
 H       -16.2153690300        3.8752080646        2.1723365151
 H       -15.6929267097        2.7552437989        1.0278097949
 H       -14.7235785482        4.2474386593        1.1854556321
 H       -16.3626568732        1.8580747817        3.4589944009
 H       -15.0501755483        0.8960634396        3.9554462676
 H       -15.5329263219        0.6329066165        2.2919951382
 H        -9.2803219518       -2.5605634976        3.7792554757
 H       -10.3676550362       -2.6361071120        2.2561943820
 H       -10.8705356824       -2.0237040203        3.8365100755
 H        -8.2222426274        1.0712546029        3.5456148130
 H        -7.6240948377       -0.4950006480        4.1640825567
 H        -9.0343177402        0.2189461467        4.8273531833
 H        -5.3816630660        2.8707787431       -0.8168657087
 H        -6.2432906600        4.1571745024       -1.7473520881
 H        -6.6080716202        2.3923897840       -1.9756522577
 H        -6.6505583014        4.0670578889        1.8920061075
 H        -7.8355006523        5.1754096145        1.1604950799
 H        -6.1439070347        5.0625226797        0.5207804963
 H        -8.2062999554        8.5418873140       -3.0138565620
 H        -9.7598037924        9.4011164061       -2.7527084051
 H        -9.1044941591        9.3207627749       -4.3223890550
 H       -11.7982730190        8.1284591732       -4.6614845661
 H       -11.8325933350        7.9310322857       -2.8578776245
 H       -11.9351245448        6.5638335182       -3.9994341201
 H        -8.1896261247        2.2810395864       -7.5163172087
 H        -7.4513190278        1.9809063638       -5.9726813195
 H        -6.5921044057        1.3735030776       -7.3920394820
 H        -4.4835436982        2.6579299166       -7.2238129190
 H        -5.0885710393        2.9649501934       -5.6240529619
 H        -4.4383302776        4.3169388127       -6.5789281179
 Na      -10.1446345942        3.6466833700        2.2242048193
