117

 C        -4.9722957036        4.0595371639       -9.1671443138
 C        -6.2968594693        4.1912196712       -8.4122843457
 O        -7.2952279148        4.6634424100       -8.9779674380
 C        -6.5376129224        3.4890538681       -7.0161239979
 C        -7.2927194584        4.3564419214       -5.9340599306
 O        -7.9604625369        3.7673541939       -5.0976782636
 C        -7.2150586131        5.8723395499       -6.0117959908
 C        -7.9359045503        6.6624373763       -4.8780976148
 C        -9.4531227528        6.8931991870       -5.0968012240
 O       -10.0118079288        6.5413017417       -6.0717709548
 C       -10.2132771054        7.5321630884       -3.7929078869
 C        -9.7876509426        6.5009763720       -2.7085374078
 O        -9.0310338254        6.8187583822       -1.8288135530
 C       -10.3006388469        5.0346739953       -2.7330945192
 C        -9.1177393422        4.0931820009       -2.3900215515
 C        -8.9154378709        3.9630552634       -0.8498555684
 O        -9.8859448278        4.1234419231       -0.1568339842
 C        -7.4576524377        3.8213385920       -0.2954448780
 C        -7.3821068623        2.6318954649        0.7300216910
 O        -7.8667660043        2.6795647181        1.8332348459
 C        -6.6786071344        1.2769739656        0.2110783779
 C        -6.8810978585        0.0599936106        1.1970242130
 C        -8.2332309562       -0.5985903941        1.0684150108
 O        -8.6275698352       -1.1045869229        0.0246116611
 C        -9.1376930392       -0.6746210323        2.4008395570
 C       -10.0411739957        0.5384436915        2.4349082313
 O        -9.9547722139        1.4382629059        3.2745761396
 C       -11.1298236678        0.7655802650        1.3846586200
 C       -12.5172656523        0.9639585838        2.0061879736
 C       -13.0952847480        2.4410651547        1.9109450381
 O       -12.5529457071        3.3640378712        1.3567857445
 C       -14.5562660559        2.5518099918        2.4886613876
 C       -14.2918851819        2.9050239441        3.9796770899
 O       -14.0767068390        2.0372762054        4.7942339188
 C       -14.4467103124        4.3520618280        4.4530073524
 C       -13.3770763114        4.7391911748        5.5112556459
 C       -11.9974638919        4.8344343011        4.7779930964
 O       -11.9179922917        5.0091849788        3.5994588760
 C       -10.6442665496        4.9013994172        5.5953456567
 C        -9.6217274477        5.6022414841        4.6616756935
 O        -9.1428370109        4.9710382914        3.7115572169
 C        -8.9810242049        6.8940342729        5.1088714014
 C       -11.0201961475        5.6110590118        6.9491963594
 C       -10.1063965381        3.4934258998        5.9830056748
 C       -15.4230282630        3.6722819529        1.7163400277
 C       -15.4436632317        1.2345845845        2.3495394855
 C        -9.9755777167       -1.9795615060        2.1921076661
 C        -8.3210445568       -0.7814567252        3.7098814240
 C        -6.2758741909        3.7026542053       -1.3660493828
 C        -7.2393118633        5.1433039421        0.4779666506
 C        -9.5552049253        8.9360963035       -3.4541545786
 C       -11.7196448329        7.5471140329       -3.9527939527
 C        -7.4612258725        2.3469477979       -7.4010996094
 C        -5.3389624024        2.9336672400       -6.3027600690
 H        -5.1245537965        3.0996695153       -9.6743696646
 H        -4.1331647481        3.9927749046       -8.5396388435
 H        -4.9756607543        4.8763178496       -9.8717009006
 H        -7.6651504579        6.0684633985       -6.9837438275
 H        -6.1633741806        6.0660032420       -5.9663277653
 H        -7.2570684585        7.5275831972       -4.7411963116
 H        -7.7651505890        6.0574978514       -4.0086434046
 H       -10.7123114345        4.8658705309       -3.7266636620
 H       -11.0102207819        4.8853770544       -1.8856125823
 H        -8.2214129964        4.5317513319       -2.8329501784
 H        -9.4061318548        3.1624343956       -2.7903943826
 H        -5.6733366784        1.4633456996       -0.0466942887
 H        -7.2660564899        1.0688813626       -0.7362712962
 H        -6.7549195700        0.4062978051        2.1578812487
 H        -6.1777776673       -0.7825775668        1.1506969042
 H       -11.1752525823       -0.0725989804        0.7646256557
 H       -10.9188588036        1.6707854814        0.8235171548
 H       -12.5241643285        0.5972164953        3.0189562917
 H       -13.1345559613        0.4036293047        1.3432319670
 H       -15.5440097734        4.4077327023        4.7717300535
 H       -14.3304929403        4.9166183356        3.5530565795
 H       -13.3834041025        4.1158699682        6.3708522539
 H       -13.6275860169        5.7451637367        5.8592771209
 H        -9.6235455773        7.5400854349        5.6896922637
 H        -8.4406251768        7.2925998991        4.2181400686
 H        -8.2667397299        6.5748243545        5.8363496999
 H       -11.8409658360        5.0201274894        7.4083865332
 H       -11.2864574895        6.6453615795        6.7394827997
 H       -10.0866684737        5.4873205451        7.5309443206
 H        -9.4445126435        3.5848531655        6.8404906396
 H        -9.4414597268        3.0471780718        5.2693694566
 H       -10.8440538603        2.7633556952        6.2695196456
 H       -16.3656745476        3.7558339446        2.1830901122
 H       -15.5194449458        3.3147081534        0.6899692651
 H       -14.9651064611        4.6399503203        1.6971365487
 H       -16.4660977530        1.4493516023        2.7638902200
 H       -15.0287383570        0.4727899039        2.9328892437
 H       -15.6847217020        0.9337643256        1.3376029974
 H        -9.3435457961       -2.8268489058        2.4143369173
 H       -10.2086677705       -2.1960433117        1.1199289181
 H       -10.9233385397       -1.9625923128        2.7213473719
 H        -7.7777071100        0.1655375338        3.8736471294
 H        -7.4928509833       -1.5249025706        3.7839540314
 H        -8.9068839657       -0.8685945693        4.5605977088
 H        -5.3023329019        3.5834262849       -0.9703033611
 H        -6.2855253370        4.5786083451       -1.9461439072
 H        -6.5733646132        2.8995129561       -2.0269989855
 H        -6.4816467110        4.9091389400        1.2239917161
 H        -8.1074081543        5.4539995586        0.9642520099
 H        -6.9127199293        5.9633239937       -0.1251674709
 H        -8.5422936319        8.8773077389       -3.0720213248
 H       -10.2103023579        9.3977822893       -2.7422709785
 H        -9.4969818593        9.5676031707       -4.2904949642
 H       -11.8484280124        6.6902212368       -4.6585774588
 H       -11.9265309246        8.4611757916       -4.5007890678
 H       -12.2463210853        7.5582646155       -2.9735297675
 H        -8.4242321814        2.7135227755       -7.7340244819
 H        -7.6269188050        1.6329531600       -6.5948078575
 H        -7.1275849646        1.8338196631       -8.2929860441
 H        -4.9889878847        1.9966544250       -6.7720072875
 H        -5.6103807767        2.6815691105       -5.2932735575
 H        -4.4784885826        3.6329539824       -6.3226003730
 Na      -10.2280658741        3.4924979668        2.1466122730
