117

 C        -5.0729783742        4.0156755139       -9.2143892979
 C        -6.4064078196        4.1284205325       -8.5214874153
 O        -7.2957651792        4.8190723034       -9.0210345958
 C        -6.5795295030        3.3885401195       -7.1086210506
 C        -7.2850763412        4.3739158771       -6.1273867164
 O        -7.8082872256        3.9604839486       -5.0939268818
 C        -7.2904644079        5.9098471229       -6.4005607008
 C        -7.7668952887        6.7162968405       -5.1593829384
 C        -9.3747778951        6.7403899922       -5.1006451547
 O       -10.0574304721        6.4399042040       -6.0305122591
 C        -9.9687106063        7.4429115024       -3.8447386027
 C        -9.6459024056        6.4814695005       -2.5927478928
 O        -8.9112134994        6.8189703461       -1.6959258804
 C       -10.2291921371        5.0296432197       -2.5290791527
 C        -9.0611691287        4.0038464313       -2.2095571058
 C        -8.8981533210        3.8396116387       -0.7212268407
 O        -9.8464994460        3.7680094954       -0.0005768391
 C        -7.3045420753        3.6152514412       -0.1665574004
 C        -7.4656380385        2.3474043381        0.6071973594
 O        -8.2627740352        2.2727453957        1.5247774928
 C        -6.7100950369        1.0906794296        0.1929367033
 C        -6.9540535865       -0.0529702138        1.2461603359
 C        -8.4078727820       -0.6109659042        1.1922067302
 O        -8.8399366148       -0.9599934198        0.0795847688
 C        -9.2756399401       -0.6699811998        2.5475623055
 C       -10.2359420990        0.6296004424        2.3765797006
 O       -10.2243945089        1.5299593608        3.2111342145
 C       -11.2374014527        0.6136264667        1.2353740495
 C       -12.7223982725        0.7611469939        1.6464828109
 C       -13.1290113583        2.1563487049        1.9376485473
 O       -12.4293374610        3.0846720220        1.6831543297
 C       -14.5243669398        2.5263856930        2.5511027162
 C       -14.1755923547        2.9480031185        4.0105724625
 O       -13.6435714845        2.0988848152        4.7171901007
 C       -14.4927202094        4.3967527860        4.5546897575
 C       -13.3226577080        4.8363496763        5.4604167596
 C       -12.0376479440        5.1507367528        4.7262169260
 O       -12.0325318655        5.1538920422        3.5128090526
 C       -10.7651033136        5.1796749287        5.5054129840
 C        -9.5541977171        5.7750030811        4.5313116990
 O        -9.0522495861        5.2589387033        3.5590877637
 C        -8.7789916022        7.0416112202        5.0187265005
 C       -10.7449758171        5.9608271960        6.8925719837
 C       -10.5665796203        3.6727340548        5.8820020240
 C       -15.1860443351        3.5761856529        1.6140673181
 C       -15.5620312755        1.3979123943        2.6807740817
 C        -9.9946687487       -1.9717977808        2.6645351072
 C        -8.4648102543       -0.3361368142        3.8434968962
 C        -6.3421227173        3.5639713760       -1.4056850865
 C        -6.9720390925        4.8011681212        0.7087476113
 C        -9.6162562047        8.9529782547       -3.5713317391
 C       -11.5567329110        7.3707611858       -4.0632677697
 C        -7.4063134054        2.1123102509       -7.2170275900
 C        -5.2222892451        3.1126363237       -6.4595348124
 H        -4.9199699022        2.8890386781       -9.2230721993
 H        -4.2821975138        4.5202691268       -8.6078900576
 H        -5.1608485403        4.4103001184      -10.2385534676
 H        -7.9547070704        6.1149660685       -7.2159230982
 H        -6.2041699168        6.0444302584       -6.6010572545
 H        -7.3329640483        7.6916442961       -5.2079619230
 H        -7.2609104652        6.2851765881       -4.2843738498
 H       -10.7131947016        4.7239769836       -3.4311521886
 H       -10.8559689934        5.1388824571       -1.6598533818
 H        -8.2342077052        4.2801937471       -2.7963551113
 H        -9.5612751557        3.0081667534       -2.3921164499
 H        -5.6672998540        1.3161530680        0.0188084801
 H        -7.0592807903        0.7536498663       -0.8143218275
 H        -6.7121372327        0.2634809993        2.2544016785
 H        -6.2089539655       -0.8884540996        1.0447009091
 H       -11.1557114771       -0.3805454911        0.6916031953
 H       -10.8771750280        1.4737202766        0.5910810551
 H       -12.8220332919        0.0832857980        2.5730822959
 H       -13.3311756803        0.3577966263        0.7454548780
 H       -15.4415360894        4.3627134995        5.0900339034
 H       -14.5148975316        4.9848090152        3.6736426647
 H       -13.1665321726        4.0785419195        6.2359591074
 H       -13.6973062249        5.8002945411        6.0176841927
 H        -9.3333401191        7.9576772444        5.0899568790
 H        -7.9449905727        7.1268132450        4.2863857381
 H        -8.3854052075        6.7950170070        6.0224676121
 H       -11.4655507407        5.3911291543        7.4646250458
 H       -11.1295579790        6.9487778283        6.8069586189
 H        -9.7533239436        5.9002032106        7.2244871609
 H        -9.5263865109        3.3453194984        5.9526594112
 H       -10.9565485919        2.9669000473        5.1609858242
 H       -11.0290767317        3.4580137237        6.8557477663
 H       -16.0086953707        4.1349580886        2.0485327276
 H       -15.5195226903        3.0332606129        0.6928851397
 H       -14.3687353798        4.2713296524        1.3510276612
 H       -16.5313157383        1.9023675564        2.6837695113
 H       -15.3699794920        0.6953550032        3.4816110906
 H       -15.6107447856        0.8237003405        1.7177163328
 H        -9.4160066002       -2.7473880243        2.2216672780
 H       -10.9498419578       -1.9366261085        2.1696249956
 H       -10.3804230720       -2.1144166760        3.6811868108
 H        -8.0131527727        0.6228560694        3.9834601356
 H        -7.5972336618       -0.9900072963        4.0100265065
 H        -9.1299833882       -0.4636759176        4.6777819140
 H        -5.2903803153        3.4565750140       -0.9987573010
 H        -6.2941946458        4.5763235267       -1.8679798470
 H        -6.6051870202        2.8377500253       -2.1753199011
 H        -5.9427666969        5.2015839705        0.5030267521
 H        -7.0539953385        4.5299312881        1.7634433362
 H        -7.6605530446        5.6615445332        0.5457232283
 H        -8.4973929196        8.9730756692       -3.3470333472
 H       -10.1310265739        9.4229754134       -2.7280757855
 H        -9.7790207381        9.6272414421       -4.4553794278
 H       -11.7962135971        6.9128680167       -5.0282498577
 H       -11.9924323116        8.3045417681       -3.9306137817
 H       -11.8484430089        6.6930147794       -3.2609650931
 H        -8.5096135991        2.2993783738       -7.3092827379
 H        -7.3090221371        1.5354673537       -6.2873803791
 H        -7.1072740520        1.5385342009       -8.0994934897
 H        -4.5627689034        2.5202861263       -7.0957403691
 H        -5.3852902441        2.5967759013       -5.5225575510
 H        -4.7636527997        4.0416779481       -6.1301662455
 Na      -10.2588792705        3.7804778702        2.2880126914
