117

 C        -5.5619554921        3.2937544280       -9.7842626874
 C        -6.5967967050        3.8580135107       -8.8363480803
 O        -7.6460341571        4.2853208711       -9.1718616148
 C        -6.2301392827        3.8352990586       -7.2520074335
 C        -6.9921724116        4.8697143688       -6.4397710714
 O        -7.2518630363        4.6546538462       -5.2758654296
 C        -7.4589949850        6.2549841143       -7.0616466364
 C        -8.0198621298        7.1407769840       -5.9201269116
 C        -9.2237602341        6.6318951770       -5.2115158454
 O       -10.0897534225        5.9274938693       -5.7540389309
 C        -9.6110978236        7.1063601613       -3.7831113278
 C        -9.1688251736        5.7551330570       -2.9500203214
 O        -8.2025959882        5.7135620056       -2.2131589810
 C        -9.8776880685        4.4222771095       -3.1407660198
 C        -9.2381033978        3.3357075698       -2.3359656372
 C        -8.9029804745        3.7575803870       -0.8228577509
 O        -9.8991191378        4.1042382122       -0.1644206466
 C        -7.5402723169        3.3743989054       -0.2148303538
 C        -7.7620165669        2.1060997712        0.7655700775
 O        -8.4138247563        2.1199255095        1.7947515104
 C        -6.9380117852        0.8207194368        0.5429232626
 C        -7.2360602605       -0.2395587162        1.6233891583
 C        -8.7462383745       -0.7044291658        1.7212504024
 O        -9.3449075775       -1.1112131982        0.7915933955
 C        -9.4821961273       -0.6332949015        3.1475975408
 C       -10.6504136143        0.4996450249        2.9681926246
 O       -10.5195620396        1.5700370333        3.4994029702
 C       -11.9244637260        0.0830973791        2.1939856033
 C       -13.1461647273        0.7693403845        2.8214108877
 C       -13.4218512589        2.1601414602        2.2467535915
 O       -12.6929199742        2.7437097031        1.4447464692
 C       -14.7069307029        2.8514184425        2.7978393823
 C       -14.2933672476        3.7480928250        4.1191966174
 O       -13.8887099986        3.1774688130        5.0745119700
 C       -14.2178010886        5.2933563692        3.9594409061
 C       -13.1729483014        5.7595381221        4.9489556447
 C       -11.8395300518        5.2798717986        4.3524411910
 O       -11.7995990074        4.5829192594        3.3915426799
 C       -10.4419577431        5.5376831623        5.2205956374
 C        -9.2326024715        5.9409298737        4.2212759145
 O        -8.9302501880        5.2165759689        3.2754445111
 C        -8.6448941543        7.3029282298        4.1021729158
 C       -10.6628310451        6.5676262767        6.2938846432
 C       -10.2585932987        4.1302870718        5.7357419266
 C       -15.3095739436        3.7276955675        1.7622923095
 C       -15.8206842469        1.8930824804        3.3333418927
 C       -10.1223424834       -2.0411949296        3.2599469542
 C        -8.6831921573       -0.0983292470        4.3385334291
 C        -6.3355415355        3.1646128955       -1.2003251640
 C        -7.0473143002        4.4621546755        0.8295182946
 C        -8.6775648287        8.2540993385       -3.3298280759
 C       -11.0890667021        7.3686812394       -3.6341041950
 C        -6.7752223869        2.4042496396       -6.8172166045
 C        -4.7364279794        3.9067592404       -7.0111453958
 H        -4.9757496444        4.0710025228      -10.1964597243
 H        -6.1313326632        2.8136228623      -10.6095833195
 H        -4.9757508337        2.5490355802       -9.3011778975
 H        -8.2392262451        6.0706494057       -7.7993507701
 H        -6.5609268445        6.5786056213       -7.5749650105
 H        -8.3934591466        8.1006945518       -6.3137219922
 H        -7.2301550823        7.3508302083       -5.2174947319
 H       -10.0652888726        4.2686625463       -4.2045848293
 H       -10.9487364616        4.4595681995       -2.8439582387
 H        -8.3136978619        2.8272905016       -2.8113267697
 H        -9.8868406641        2.4734153722       -2.4471234000
 H        -5.8882658226        0.9564695673        0.5031542472
 H        -7.2289582115        0.3829364950       -0.4357607117
 H        -6.7871283066        0.0049441980        2.5596065090
 H        -6.6834730905       -1.0395516467        1.1068805156
 H       -11.9804737422       -0.9294618280        2.1373550679
 H       -11.8075489556        0.4065564356        1.1685016424
 H       -13.1432605763        0.9476129806        3.8642054487
 H       -13.9039644518        0.1229754601        2.6104020009
 H       -15.1983994919        5.8687433839        4.0889245652
 H       -13.9995198935        5.5883320070        2.9479381163
 H       -13.3757101376        5.4634359315        5.9190164499
 H       -13.1096821468        6.8514276160        4.9247847120
 H        -9.5294522318        7.9908464712        3.9131668547
 H        -7.8802946167        7.4522815404        3.3420032959
 H        -8.2080478751        7.5547086227        5.0517214448
 H       -11.6921320851        6.6070758066        6.6828779868
 H       -10.4549443494        7.5977884437        5.9802878204
 H       -10.0168967472        6.4870251116        7.2340873906
 H        -9.4357806481        4.0636342257        6.4463989543
 H       -10.0198865914        3.4142993121        4.9457390961
 H       -11.1629873429        3.7417424535        6.1900328818
 H       -16.1869036373        4.1582541650        2.1909539379
 H       -15.5582062340        3.1155594248        0.8840454495
 H       -14.7574298412        4.5426141911        1.3361065492
 H       -16.8907471696        2.2032271393        3.1774408992
 H       -15.5760766821        1.5336956327        4.3109776132
 H       -15.8225398942        1.0521933363        2.6569543838
 H        -9.5920873745       -2.6832498943        3.9878390624
 H       -10.0492739644       -2.6451507190        2.3319603985
 H       -11.1276498197       -1.8922178529        3.5858092530
 H        -8.4115143471        0.9018618117        3.9929186636
 H        -7.7463744641       -0.6383367133        4.4861927577
 H        -9.2115982521        0.0233355963        5.2295390898
 H        -5.4230067026        3.2505274817       -0.6651189975
 H        -6.2167586250        3.9123315729       -1.9666371290
 H        -6.3653930308        2.1654325930       -1.7313674553
 H        -6.2586552800        3.9660738638        1.4338771632
 H        -7.8237950708        4.8122341646        1.5201258224
 H        -6.6653772445        5.3561711274        0.3415817795
 H        -7.6813941295        7.9026810175       -2.9923998169
 H        -9.0796167406        8.7426765305       -2.3744836391
 H        -8.4420826850        8.9971000056       -4.1068265831
 H       -11.5889329304        6.5535515867       -3.0625465651
 H       -11.5783538633        7.3411110971       -4.6455139905
 H       -11.4301944838        8.3335041183       -3.2602251430
 H        -7.4769028301        2.1716156615       -7.6032675313
 H        -7.2234776582        2.3762567434       -5.7876617005
 H        -5.9882952877        1.6314933566       -6.9202758211
 H        -4.1957231494        3.1317040117       -7.5854117161
 H        -4.4675111283        3.7839959706       -5.9709962738
 H        -4.3567769205        4.8846955289       -7.3918850886
 Na      -10.4063632269        3.4333653656        1.9944950589
