117

 C        -6.0241661426        2.5428970799       -9.8108250942
 C        -6.7583902722        3.4476507408       -8.7962777510
 O        -7.8404984372        3.8350474781       -9.0700687079
 C        -6.0196659261        3.9199960855       -7.4605981729
 C        -7.0707692933        4.6794313584       -6.5815620232
 O        -7.4540646719        4.2535425386       -5.4975446024
 C        -7.6283691059        6.0447966232       -7.1467940246
 C        -7.8629449204        6.9103009262       -5.8951558015
 C        -9.1235796592        6.6080155236       -5.1743892128
 O       -10.0694689559        6.1431762301       -5.7911782725
 C        -9.2590604018        6.8327189163       -3.5221590731
 C        -8.8426040265        5.4867218236       -2.8836831758
 O        -7.7655732673        5.2893480218       -2.2836185590
 C        -9.8273070689        4.3032273180       -3.0360909255
 C        -9.1483426381        3.0054335869       -2.7550528843
 C        -8.9604204675        3.0597976321       -1.1298681806
 O        -9.9260653549        3.2259450985       -0.4078235800
 C        -7.6631174512        2.7551668241       -0.3724260426
 C        -7.7987746682        1.6910888405        0.6950493754
 O        -8.3829631086        1.8662954729        1.7649965263
 C        -7.2234523930        0.2767053295        0.4268932261
 C        -7.5459451598       -0.7054297437        1.6062989782
 C        -9.0640527678       -0.5758673036        1.9518243397
 O        -9.8790790511       -0.5124179186        1.0149408329
 C        -9.5190065761       -0.6022261796        3.4573769895
 C       -10.5468318736        0.6365654884        3.6085589800
 O       -10.1042190079        1.7122861494        4.0319426901
 C       -12.0614743131        0.4530801626        3.2891310898
 C       -12.8715435500        1.7015283506        3.7746116691
 C       -13.2949058359        2.6174698268        2.5695587476
 O       -12.5618734846        2.9692311720        1.6859151170
 C       -14.7119607335        3.2019660189        2.7142050540
 C       -14.5189776141        4.0287955251        4.1087646279
 O       -14.6859502934        3.3625011149        5.1034027183
 C       -14.4950748832        5.4853633546        4.1543085467
 C       -13.2854808805        6.1178038272        4.9407549657
 C       -12.0029538940        5.6770064501        4.1331364572
 O       -12.0687864740        5.3286287128        2.9667435831
 C       -10.5667387243        5.9336956983        4.8795336345
 C        -9.4935019241        6.0776000720        3.8199626934
 O        -9.3697012072        5.1877841128        3.0134144336
 C        -8.5219367722        7.2653769617        3.7490862286
 C       -10.6381852467        7.1721458530        5.8231736169
 C       -10.1518806646        4.7020048096        5.6542246317
 C       -15.0890973936        4.0458743863        1.5453957761
 C       -15.7819537395        2.1466019914        3.0110012332
 C       -10.0619886204       -1.9579514065        3.9224675812
 C        -8.3010075534       -0.3344413086        4.3607904240
 C        -6.4967056756        2.4472402444       -1.3042013997
 C        -7.3242344771        4.0973635243        0.4149156453
 C        -8.2393496299        8.0401263102       -3.1761000156
 C       -10.7012073876        7.2675015611       -3.1665569413
 C        -5.3702402078        2.7682628942       -6.7591050032
 C        -4.8649722657        4.9110647647       -7.9243195013
 H        -6.0779318190        1.4683530139       -9.3761846059
 H        -4.9658959779        2.7638044664       -9.8454996144
 H        -6.5255930280        2.5689034437      -10.8536677677
 H        -8.5790814203        5.9298228228       -7.6580790690
 H        -6.9889921645        6.4526864373       -7.8922224543
 H        -8.0857678962        7.9230723859       -6.2651832528
 H        -6.9954316772        6.9688662797       -5.2993027208
 H       -10.3948470281        4.3544287087       -3.9621081886
 H       -10.5737657579        4.4843915829       -2.2397818053
 H        -8.1729705427        3.0019534166       -3.1563562616
 H        -9.8219604384        2.1258410337       -2.9921648803
 H        -6.2064732452        0.1832117187        0.1220089856
 H        -7.8958971989       -0.0283060053       -0.3416024193
 H        -6.8602194905       -0.5739817713        2.4576981313
 H        -7.2815794858       -1.6840933435        1.3494802998
 H       -12.3123911509       -0.3993418040        3.9778604334
 H       -12.2820430667        0.1632053409        2.2911700039
 H       -12.3262198255        2.3683700652        4.3797968978
 H       -13.7130142948        1.2621562030        4.3025750231
 H       -15.4577719772        5.9121126841        4.4132075873
 H       -14.2822761712        5.8414277337        3.0830466996
 H       -13.3174154367        5.7619074777        5.9967602587
 H       -13.3565606904        7.1648900291        4.9476363883
 H        -8.9343409626        8.1056377947        3.2971501258
 H        -7.7412247468        6.7950406140        3.1364825320
 H        -8.2026938623        7.6765366186        4.7266423060
 H       -11.1129377903        6.9084248759        6.7625623251
 H       -11.1482063074        8.0131173123        5.3298775775
 H        -9.6745071700        7.4492318044        6.1397372049
 H        -9.0978288740        4.8274713439        5.9572305345
 H       -10.1790879422        3.7950476178        5.0470554655
 H       -10.6949045395        4.6361798655        6.6144983126
 H       -15.9886847081        4.6610151923        1.7814944927
 H       -15.4271626391        3.4992399742        0.6581056263
 H       -14.2688276608        4.7331943125        1.2481618093
 H       -16.7475087379        2.5723692440        2.8673470649
 H       -15.8765517234        1.6568069153        4.0011354701
 H       -15.5862077493        1.3686333096        2.2298402925
 H       -11.0768350897       -1.9697722603        3.5530502649
 H       -10.1217086589       -1.9536232834        4.9980046071
 H        -9.5816813193       -2.8340866179        3.4432016079
 H        -7.7784254110        0.5997709981        4.2082541641
 H        -7.6473813733       -1.1938611819        4.2501467541
 H        -8.6916687499       -0.4672254484        5.4097047370
 H        -5.5349003640        2.3653376579       -0.7190830459
 H        -6.3808547858        3.2231630091       -2.0828586416
 H        -6.5139506123        1.4985140937       -1.7842314784
 H        -6.4020520521        3.8786381728        0.9520616459
 H        -8.1109072036        4.3300033900        1.1333282050
 H        -7.1339286848        4.9824802003       -0.2266319404
 H        -7.1746593132        7.8431695026       -3.3611494641
 H        -8.3105501262        8.2442189016       -2.1304186210
 H        -8.6247306371        8.9204006766       -3.7131281983
 H       -10.8007887468        7.9689076746       -2.4000954884
 H       -11.3968704229        6.5666761461       -2.8355584675
 H       -11.1791381928        7.7095137072       -4.0261354938
 H        -6.0593886561        1.9210079363       -6.7512002982
 H        -5.1159794823        3.0465875994       -5.7646338092
 H        -4.4503417060        2.6305383331       -7.2970915254
 H        -4.2755608280        4.5490756675       -8.7430075069
 H        -4.1372299132        5.1576406293       -7.1328828941
 H        -5.3153832880        5.8342995617       -8.2265135444
 Na      -10.2071718673        3.3850889725        1.9939256325
