117

 C        -5.8095240026        2.9253093391       -9.8936484221
 C        -6.7041476441        3.6499752574       -8.8247990079
 O        -7.7975801239        4.1191825202       -9.1550719757
 C        -6.1260710019        3.8766005366       -7.3429455663
 C        -7.1127799551        4.8077295319       -6.4666178793
 O        -7.5026722702        4.4995283049       -5.3520093983
 C        -7.4921741607        6.1318309603       -7.1082620206
 C        -7.9450118249        7.1669617443       -6.0014972293
 C        -9.1601786850        6.5648869423       -5.2272121225
 O       -10.0144010938        5.9129592487       -5.7332099105
 C        -9.2202226849        6.8867724207       -3.6302670328
 C        -8.9642676175        5.5549693034       -2.8733535586
 O        -8.0693778406        5.5542764193       -2.0360679377
 C        -9.7578694279        4.2625929243       -3.2447216745
 C        -9.1484413096        3.0528542289       -2.5456997765
 C        -8.9894010679        3.2079804856       -1.0486389560
 O       -10.0063204732        3.1807249381       -0.3785390766
 C        -7.5347596016        3.0685750824       -0.3986004304
 C        -7.7041505270        1.8811842346        0.6579456055
 O        -8.4097846774        1.9930376839        1.6474917079
 C        -7.0459366915        0.4922608990        0.4284995773
 C        -7.3344956525       -0.4480964441        1.6251977771
 C        -8.8603331815       -0.4309493036        1.9116871107
 O        -9.6867301889       -0.4123514740        0.9640469107
 C        -9.4094981261       -0.5560266020        3.4069817872
 C       -10.4578136135        0.5565717563        3.4723080060
 O       -10.2068613534        1.6703490856        3.9717810991
 C       -11.8012245218        0.4772703436        2.7002972351
 C       -12.9686745633        1.2724837279        3.3868456027
 C       -13.5021636054        2.4612706709        2.5389862107
 O       -12.7547239080        2.9072351127        1.6896472160
 C       -14.8555407019        3.1609727842        2.8896239428
 C       -14.5851617136        3.9512258072        4.2050203615
 O       -14.3958562216        3.2456130612        5.1646882411
 C       -14.4085589456        5.4665970027        4.1527380427
 C       -13.1457737137        5.8589640892        4.9785339042
 C       -11.8933776571        5.5353700960        4.1139429893
 O       -11.9361382275        5.0623647482        2.9817646274
 C       -10.5297994071        5.7628986817        4.9402686192
 C        -9.4261705060        5.9212967065        3.8958892555
 O        -9.1569354686        5.0565918086        3.0903276985
 C        -8.7030193443        7.2785294079        3.8755273033
 C       -10.5847111180        6.8800065950        6.0922865096
 C       -10.3745217236        4.3302816782        5.6121152870
 C       -15.1534406706        4.0167144318        1.6410540063
 C       -15.9715923775        2.1279760830        3.1202923413
 C        -9.9891204801       -2.0267309576        3.5211142900
 C        -8.4058107153       -0.3205987651        4.5461207782
 C        -6.3942442660        2.8170282429       -1.4376839190
 C        -7.1515220512        4.2325153291        0.5538160815
 C        -8.3824159016        8.0851027010       -3.2470280291
 C       -10.6926956331        7.3821743404       -3.4226230976
 C        -6.0204660336        2.4849842530       -6.6622664282
 C        -4.7277814157        4.5459622616       -7.5093742869
 H        -4.7928510629        2.8176300656       -9.4943730707
 H        -5.7008415190        3.5747160258      -10.7142945871
 H        -6.3146609422        2.0499142239      -10.2878747943
 H        -8.2835428122        5.8688268380       -7.8551520602
 H        -6.6963094078        6.4640436081       -7.7654847945
 H        -8.3061452078        8.0332304435       -6.5960685215
 H        -7.1073843463        7.4929607464       -5.4344689322
 H        -9.8945900807        4.1149416897       -4.3350478701
 H       -10.8167451967        4.4834902856       -2.9266583587
 H        -8.1570876541        2.8180975427       -2.9763307917
 H        -9.8171101862        2.1218242750       -2.7837858167
 H        -5.9963132975        0.6421050558        0.2198242820
 H        -7.5544577411        0.0780430150       -0.4337776792
 H        -6.7954612386       -0.0137802732        2.5364342279
 H        -6.9322704634       -1.4280583384        1.5553014923
 H       -11.9766325070       -0.5850032759        2.5978044831
 H       -11.5597521285        0.8699172843        1.7608784082
 H       -12.5304931508        1.6952682192        4.2007069204
 H       -13.7349784101        0.5889626287        3.6354417576
 H       -15.2993697948        5.9972881875        4.2439234650
 H       -14.0950039096        5.7848253725        3.1110748299
 H       -13.0353343034        5.2364146203        5.8755606769
 H       -13.1236218118        6.8447272291        5.3009867471
 H        -9.1957587319        8.0231198631        4.4324948050
 H        -8.4688283589        7.4795626233        2.8468563630
 H        -7.7875944507        7.1841520010        4.5032834765
 H       -11.5839626200        6.9416484820        6.5519575003
 H       -10.4986123637        7.9545756891        5.7454180906
 H        -9.8469307377        6.7446164062        6.8740802774
 H        -9.5279619460        4.2376855409        6.3061777384
 H       -10.1639836304        3.6268142453        4.8110175573
 H       -11.2579995360        4.0373679214        6.1976871166
 H       -16.1347742852        4.5382412743        1.6799349488
 H       -15.2164875069        3.5121931263        0.7029579654
 H       -14.4402984912        4.8416781179        1.5994816047
 H       -16.9170332232        2.6103331962        3.0513904462
 H       -15.8180222807        1.5063332871        4.0582354861
 H       -15.9068659716        1.3412876283        2.3502023715
 H        -9.7089766906       -2.5106098359        2.5894182266
 H       -11.0361113899       -2.0620620410        3.6911345763
 H        -9.5823747170       -2.5942006918        4.3839657729
 H        -7.9976857291        0.6319222871        4.3912617482
 H        -7.6428537665       -1.0303492326        4.5240686753
 H        -8.9843715377       -0.2982665820        5.5168216998
 H        -5.3699359526        2.8523731923       -1.0056718881
 H        -6.4587781995        3.6731486907       -2.1707468229
 H        -6.3866229446        1.9487317421       -2.0818582484
 H        -6.1347879274        4.1510431385        0.9537309616
 H        -7.9424046016        4.2752404937        1.3533989236
 H        -7.1967027274        5.2170125427        0.0264425635
 H        -7.3285822470        7.9083165179       -3.5917365915
 H        -8.4130150579        8.2999682382       -2.1752660996
 H        -8.7940087255        9.0679454853       -3.6640094140
 H       -11.0905192262        7.9447779487       -4.2834438805
 H       -10.8011380085        8.1245563214       -2.6295179003
 H       -11.4920033288        6.6676831711       -3.2428782524
 H        -7.0088303054        2.0970311161       -6.3664320323
 H        -5.4128636053        2.6196821090       -5.7741688021
 H        -5.5625644722        1.8518556885       -7.4420142657
 H        -3.9828317408        3.8451294482       -7.8215326261
 H        -4.4115455025        5.0074516717       -6.5702837213
 H        -4.7421846035        5.4083458083       -8.1474762183
 Na      -10.4851020356        3.2208429196        2.0473456493
