117

 C        -6.6082530046        1.7479659856       -9.7664219800
 C        -7.0387839339        2.9200709076       -8.8534699794
 O        -8.1915325343        3.2686691688       -8.8486633459
 C        -5.9040713701        3.7939003740       -8.0505361733
 C        -6.6327602337        4.4029552631       -6.8088577882
 O        -6.4104107832        3.9197730703       -5.6921752725
 C        -7.6272244449        5.5989679476       -6.9750852395
 C        -7.7098553622        6.2909712499       -5.5183678872
 C        -9.0886540008        6.1946733736       -4.8969375415
 O       -10.0345338346        5.6457736789       -5.4019435391
 C        -9.2685504835        6.9070660387       -3.4277603838
 C        -8.9822091966        5.7777510251       -2.4604567503
 O        -8.0934068939        5.7310264176       -1.6561024808
 C       -10.0791496785        4.6066883379       -2.5337918868
 C        -9.4705105737        3.3013111356       -2.1929304477
 C        -9.0961557836        3.0916817845       -0.6411052306
 O        -9.8753791955        3.5912481026        0.1720867903
 C        -7.7966558027        2.2250074253       -0.2628574323
 C        -8.4553200486        1.1020370904        0.6371655398
 O        -9.2517947767        1.3642564939        1.5422935743
 C        -8.1791351367       -0.4537362567        0.4407801984
 C        -8.4616208264       -1.3105911218        1.7000181802
 C        -9.7232714854       -0.8810135986        2.5463866449
 O       -10.8010236833       -1.1246051014        2.0957819556
 C        -9.6165538409       -0.3002657825        4.0708300439
 C       -10.6814016162        0.8097316193        4.2050195156
 O       -10.3648539446        2.0153903816        4.2510006693
 C       -12.1692938620        0.4702340153        4.1777775481
 C       -13.2010965459        1.5953078811        3.9693201995
 C       -13.0913268639        2.3620766500        2.6005777340
 O       -12.1948983624        2.1636169749        1.8252677220
 C       -14.1964424102        3.4231418478        2.2677815801
 C       -14.1331779241        4.6744155865        3.2017596886
 O       -14.2827083612        4.4905278718        4.4056587091
 C       -13.7614431573        6.0205641128        2.6818438030
 C       -12.7544932906        6.6336968886        3.6695045838
 C       -11.5250709916        5.7215739060        3.9503078158
 O       -11.4796434500        4.6020312115        3.4246656720
 C       -10.3468727326        6.4016740690        4.7291687566
 C        -9.3956980673        6.7713640091        3.4533780043
 O        -8.8489148096        5.8627192388        2.8422987717
 C        -9.0140095383        8.3311955650        3.2896714691
 C       -10.6690084529        7.7312139186        5.5200050096
 C        -9.7740652505        5.3157981892        5.6950427467
 C       -13.9294565070        3.9109155253        0.8005437846
 C       -15.6459535762        2.8377844039        2.3313347025
 C        -9.9490043320       -1.5443223111        4.8360475469
 C        -8.2925355744        0.4042515082        4.2098616744
 C        -6.9296295285        1.7083411859       -1.4587302526
 C        -6.9946447890        3.2302635775        0.6742335201
 C        -8.1912597821        8.1335582664       -3.2581062826
 C       -10.7870198349        7.3432216560       -3.3808898227
 C        -4.8199949225        2.8922717345       -7.4980284311
 C        -5.3751834878        4.9209204065       -9.0570940514
 H        -7.2230240586        1.7594348045      -10.6579895615
 H        -6.8333374129        0.7342364306       -9.2989311613
 H        -5.5337936378        1.7904404644      -10.0609933716
 H        -8.6185717548        5.3423202260       -7.3271459397
 H        -7.1891159608        6.3821396256       -7.5610845581
 H        -7.5334968440        7.3828577571       -5.6270038848
 H        -6.9645847962        5.9777118049       -4.7711761531
 H       -10.5882739405        4.5544167105       -3.4523770368
 H       -10.8275771480        4.8466913326       -1.7987797791
 H        -8.6200053404        3.1232112736       -2.7889210254
 H       -10.0276615671        2.3801693806       -2.4975229059
 H        -7.2450340855       -0.6859099885       -0.0488123518
 H        -8.9018598085       -0.7313610545       -0.3354672961
 H        -7.5322078969       -1.3562517725        2.3366982731
 H        -8.6553817723       -2.2859029264        1.3585337618
 H       -12.3870819640        0.1196167676        5.1965528767
 H       -12.4087759126       -0.4037909299        3.4365897008
 H       -12.9993474529        2.4525655517        4.6796239531
 H       -14.2351931142        1.2819535929        4.2958069564
 H       -14.6114334347        6.6808001794        2.5342675215
 H       -13.2955236926        5.9599702643        1.6401131954
 H       -13.2401151103        6.7390030115        4.6236111921
 H       -12.5467316752        7.7156670341        3.3355071324
 H        -9.8925924401        8.8729317126        2.9697486927
 H        -8.3263491040        8.3942687583        2.4146699785
 H        -8.4526460067        8.7544669563        4.1586490689
 H       -11.3544794298        7.4537627214        6.3066552385
 H       -11.0932227958        8.4764181534        4.8132588805
 H        -9.8005206043        8.1059054603        6.0388509218
 H        -8.7455273489        5.5293833396        5.9218324661
 H        -9.8327753247        4.3724351370        5.2013417779
 H       -10.3035975842        5.4154789880        6.6243461639
 H       -14.6954906458        4.6012157692        0.4639494890
 H       -13.9956197868        3.0934176220        0.1533479923
 H       -12.9537601534        4.3461416310        0.7864600252
 H       -16.2682297899        3.5443774653        1.9081326783
 H       -15.9918869413        2.6384070499        3.3559820699
 H       -15.5994374053        1.8950380328        1.8240269537
 H       -10.6122042172       -2.2483757758        4.3236883527
 H       -10.3852431591       -1.4816887901        5.8063917512
 H        -9.0512858179       -2.1389747337        5.0418770823
 H        -8.0118801013        0.9534023947        3.3155167780
 H        -7.5367232583       -0.3219596785        4.4935465064
 H        -8.4333393657        1.1325569799        5.0668721490
 H        -6.1898903978        1.1264882971       -0.9702033525
 H        -6.5200987608        2.5729654883       -1.9783385218
 H        -7.3407378037        1.0517909443       -2.1730830238
 H        -6.0131721526        2.8694767445        0.9029740672
 H        -7.5716903690        3.3383991227        1.6087691910
 H        -6.9455108011        4.2166356883        0.1633803851
 H        -7.2470224624        7.6440041046       -3.0673641434
 H        -8.4238360924        8.6947696514       -2.4010586419
 H        -8.2918164409        8.7866925000       -4.1337230527
 H       -11.1588703858        7.7813839468       -2.4080801399
 H       -11.4490663968        6.4680511643       -3.5975698119
 H       -10.9741655250        8.1673022779       -4.1282245899
 H        -5.1860230930        1.8709152550       -7.3018582778
 H        -4.3942334711        3.2869038248       -6.5631761154
 H        -4.0008095075        2.8189865973       -8.2528018664
 H        -5.2560441199        4.5044556652      -10.0529757374
 H        -4.3878676079        5.3443927416       -8.8283013451
 H        -6.0978792160        5.7359000300       -9.0593214358
 Na       -9.9896132443        3.5162343788        2.4487128882
