117

 C        -7.3025602277        1.9540395202      -10.1371935582
 C        -7.3088972573        2.5775740091       -8.7235020484
 O        -8.1786164610        2.3258760515       -7.9348862259
 C        -6.0853736421        3.4340834525       -8.3033124927
 C        -6.3625788888        3.9504411093       -6.8433402992
 O        -5.6435099433        3.5432183043       -5.9432207131
 C        -7.5902565151        4.9123671454       -6.6428942868
 C        -7.5796014637        5.6948503275       -5.3566265035
 C        -8.9247953863        5.6779796362       -4.6353829499
 O        -9.8157138132        4.9507470347       -5.0414430268
 C        -9.1801658381        6.6142580011       -3.3547272062
 C        -9.2756655613        5.5780869843       -2.2282763897
 O        -8.3419568786        5.3803436633       -1.4668660515
 C       -10.5641541075        4.7495779419       -2.1363209778
 C        -9.9463723381        3.3027091489       -2.1487392434
 C        -9.4601543999        2.9989239785       -0.7324175207
 O        -9.8003544855        3.7097152167        0.1892456949
 C        -8.2420149433        1.9975269594       -0.5594442591
 C        -8.3363103332        1.3585626231        0.8857988385
 O        -8.2098782737        2.1030430413        1.8252467266
 C        -8.4992240263       -0.1462621653        1.1527868786
 C        -8.5333352917       -0.4288761544        2.6854096615
 C        -9.9724304033       -0.7377463129        3.1746953308
 O       -10.7931092997       -1.3129100443        2.4365906409
 C       -10.3165124235       -0.5086224327        4.7033151125
 C       -11.0292452413        0.9453110921        4.6236956452
 O       -10.3294487565        1.9399250914        4.5528565483
 C       -12.5219032827        0.8447273353        4.3458724295
 C       -13.1727070915        2.2061364689        4.0869047908
 C       -12.8986462796        2.7347801576        2.7070748521
 O       -11.8847006957        2.4041693491        2.1065100111
 C       -13.9111263885        3.7967788078        1.9973449261
 C       -13.9467134315        5.0193444542        2.8854213261
 O       -14.1571899270        4.9676432165        4.0603716774
 C       -13.6789333828        6.4700745615        2.2317010239
 C       -12.5338243014        7.2126289965        2.9607946360
 C       -11.2878085337        6.3526140299        3.2477770333
 O       -11.2963884312        5.1645973946        2.9187574954
 C       -10.1007113109        7.0538050918        3.9892756363
 C        -8.7541229009        6.6652441803        3.2509743888
 O        -8.3275771108        5.5336422617        3.3576151711
 C        -7.9663757184        7.8273121994        2.5211121883
 C       -10.2713067608        8.5314274123        4.2617038286
 C       -10.1568411256        6.4229495582        5.4756461760
 C       -13.2820659829        4.0847293691        0.6428729842
 C       -15.3186825488        3.1481452399        1.8474448906
 C       -11.0852712790       -1.7833441073        5.1553035367
 C        -9.0950358070       -0.2836353426        5.6794749011
 C        -8.2925145121        0.9953431040       -1.7921009606
 C        -6.9079346125        2.8269345228       -0.6011413216
 C        -8.2048304456        7.7057621320       -2.9971914160
 C       -10.5747873443        7.2928146775       -3.5943935844
 C        -4.8914870367        2.3756042224       -8.2406342003
 C        -5.6172832276        4.4827710717       -9.3931816606
 H        -6.2981075988        1.5766540168      -10.5071339603
 H        -7.5721482937        2.7626420223      -10.8297168724
 H        -8.0851784135        1.1004648002      -10.2385095360
 H        -8.4903860705        4.3296828754       -6.7604045325
 H        -7.6496162174        5.5785224932       -7.4856738741
 H        -7.1781534421        6.7195100495       -5.4048772689
 H        -6.9304264599        5.1116047755       -4.7311655316
 H       -11.2190765470        4.8113096654       -3.0323160356
 H       -11.1716127567        4.9597216105       -1.2521341460
 H        -9.0602324534        3.3269557774       -2.7953127002
 H       -10.7694339822        2.6297421536       -2.3547965988
 H        -7.6480011079       -0.6017706068        0.7619981949
 H        -9.3969095020       -0.5071293957        0.6663690959
 H        -8.1862335278        0.5446114788        3.1234261751
 H        -7.9527907790       -1.3023877386        3.0624449897
 H       -12.8790500620        0.2841929533        5.2055695632
 H       -12.7016499450        0.1842532262        3.4892958157
 H       -12.8436716287        2.9974483821        4.7025719134
 H       -14.2136277580        2.1282556292        4.1634645757
 H       -14.6087200510        6.9761444647        2.5396999285
 H       -13.6183181978        6.4891912913        1.2006852158
 H       -12.9297058987        7.6343375678        3.8881170987
 H       -12.2150535231        8.0533510254        2.3877384165
 H        -8.6767605544        8.6398328712        2.2250315267
 H        -7.4885702277        7.4271024673        1.6413315641
 H        -7.1368704043        8.1993601861        3.1430175826
 H       -10.8342630415        8.8910268091        5.1513169478
 H       -10.6450314026        9.1058416262        3.4154819879
 H        -9.2660101171        8.9720701534        4.3631938988
 H        -9.3504069772        6.8071264401        6.0923710812
 H       -10.1110093556        5.3344090343        5.4221969478
 H       -11.0897615107        6.7873823812        5.9042580478
 H       -13.9915742657        4.4704783725       -0.0857523552
 H       -12.8539581791        3.1559049550        0.2122504813
 H       -12.4606179822        4.7968324400        0.7938863207
 H       -16.0860925440        3.8945419399        1.5962525160
 H       -15.6065938311        2.6409574198        2.7215680251
 H       -15.1788257197        2.3153652943        1.1494401481
 H       -11.9560137295       -2.1231775043        4.5908171076
 H       -11.3873599954       -1.6824569210        6.2007510195
 H       -10.4519069761       -2.6736781967        5.1239540738
 H        -8.5151151238        0.6404123284        5.4260563123
 H        -8.4313648154       -1.1843163167        5.7243386158
 H        -9.5027306930       -0.2151264850        6.6733190278
 H        -7.5935558784        0.1654832027       -1.6420031861
 H        -8.0241828040        1.4858493023       -2.6909664627
 H        -9.2343772507        0.4916266838       -1.9183906032
 H        -6.9340662305        3.7064240074       -1.3340094030
 H        -5.9756922700        2.2902509383       -0.8563823502
 H        -6.8200271598        3.2884847547        0.3801891108
 H        -7.2756726501        7.3001441458       -2.7571473753
 H        -8.4287085418        8.2433693278       -2.0757893399
 H        -8.0998953447        8.4293334885       -3.7624803844
 H       -10.8851989654        7.8211652141       -2.6588495395
 H       -11.3210520708        6.5090085393       -3.8917675180
 H       -10.2986219008        8.0680020936       -4.3412480893
 H        -3.9765972756        2.9407274861       -7.9228363250
 H        -4.6190190367        1.8420763970       -9.1515908153
 H        -4.9702772754        1.6127643185       -7.4579551999
 H        -5.3136990265        3.9471315142      -10.2644211335
 H        -4.7347739173        5.0027401975       -9.0271699050
 H        -6.3935246588        5.2052565337       -9.6117885195
 Na       -9.8432831211        3.6333974099        2.7286384721
