117

 C        -8.1760064908        0.5336452408       -9.1500294389
 C        -7.6430479493        1.2859083580       -7.9668953757
 O        -8.1128922678        1.1284871662       -6.8745845273
 C        -6.4819968801        2.2597809880       -8.0712877144
 C        -6.3525456754        3.1477025360       -6.7411040732
 O        -5.2450327144        3.4030084347       -6.3201279733
 C        -7.5961682638        3.6847735451       -6.0222388077
 C        -7.4336459772        5.2453168318       -5.8276710966
 C        -8.8230292388        5.7358137234       -5.2986389845
 O        -9.8560754991        5.6136559693       -5.9226254063
 C        -8.9690949874        6.1028725654       -3.7505279151
 C        -8.2534764741        5.0308754610       -2.8525459248
 O        -7.1097071773        5.2143307514       -2.4462374133
 C        -9.0228472111        3.8100134550       -2.5063303217
 C        -8.2154809750        2.6328120683       -2.0003589824
 C        -8.6787112995        2.2740242189       -0.5476901992
 O        -9.5300485577        2.9789812484       -0.0831424310
 C        -7.9801656711        1.1184136862        0.2585349807
 C        -8.9025453712        0.5972948992        1.4818872167
 O        -9.5403765149        1.3975685831        2.1411522266
 C        -8.6044374961       -0.7494246450        1.9848809742
 C        -8.7402567999       -0.8169230251        3.5181631842
 C       -10.1624654862       -0.5167329470        4.0205966483
 O       -11.1166595332       -1.1837738020        3.6069903524
 C       -10.5204709918        0.6832978202        4.9825803682
 C       -11.2264854639        1.8116615112        4.1655576826
 O       -10.8411903233        2.9733217361        4.2694245812
 C       -12.4626564742        1.4467016027        3.3527885000
 C       -13.6743357653        2.4045827659        3.4658464129
 C       -13.3965528765        3.8205172777        2.8399026986
 O       -12.4508238276        3.9780472668        2.1044384195
 C       -14.5056674927        5.0247070556        2.9713196119
 C       -13.8243518391        6.4324098680        2.9043906029
 O       -13.7266787601        7.1033801995        3.9166999561
 C       -13.2649584532        6.9519091612        1.5637044539
 C       -12.0746205827        7.9067532220        1.9325962890
 C       -10.8432879606        6.9627501166        2.1342244434
 O       -10.7923200442        5.9460303930        1.4420459961
 C        -9.7511654799        7.3038799284        3.1261726793
 C        -8.5376758800        6.4667281679        2.6698161575
 O        -8.6338068285        5.2431373455        2.5477857632
 C        -7.2249876760        7.1658842194        2.3741334738
 C        -9.4524732626        8.8198365223        3.2107232617
 C       -10.2934639868        6.7258429273        4.5144041793
 C       -15.6571869502        4.9456030076        1.8487880862
 C       -15.2996381021        4.9560484079        4.3192817193
 C       -11.5195937977        0.1590910838        5.9858962400
 C        -9.1481616087        1.1538932176        5.5598291116
 C        -7.8165591633        0.0202562129       -0.8084712361
 C        -6.5795493922        1.5914645538        0.8244150762
 C        -8.2322522616        7.4736546372       -3.4799502452
 C       -10.5074106625        6.3193747522       -3.4508900390
 C        -5.2604349881        1.3799752234       -8.2907320015
 C        -6.5900889086        3.2574749240       -9.2854347651
 H        -7.3738665022        0.0756229585       -9.6292176087
 H        -8.6907001077        1.1923334925       -9.7701623588
 H        -8.8489429009       -0.2659695507       -8.8884351794
 H        -7.8646765356        3.1179164411       -5.1385300054
 H        -8.5243416904        3.5264438861       -6.5878699262
 H        -7.4590058695        5.7110179289       -6.8327128689
 H        -6.5565316415        5.6035472302       -5.2023009530
 H        -9.6681592938        3.5243186234       -3.3236261889
 H        -9.6735843129        4.0791592404       -1.6683392535
 H        -7.1795048636        2.9729157388       -2.0166207698
 H        -8.2691631943        1.7504049751       -2.7422197735
 H        -7.6236399680       -1.0166522745        1.5695776104
 H        -9.3392174936       -1.3929722397        1.5367601548
 H        -7.9187441193       -0.2170063355        4.0073895514
 H        -8.5719925473       -1.8808724741        3.8166925590
 H       -12.8215533984        0.4335133908        3.5642177878
 H       -12.2512543212        1.4197105611        2.3116389485
 H       -13.8544164865        2.6348446199        4.5819117261
 H       -14.6413151387        1.9990717364        2.9824375831
 H       -14.2071269429        7.4111222437        1.0974834846
 H       -12.9874074300        6.2636045930        0.8202773780
 H       -12.2979825748        8.4616209189        2.8407853807
 H       -11.8809466663        8.6721498743        1.1357403946
 H        -7.0403708296        7.4657614686        1.3359710054
 H        -6.3910140244        6.4558845759        2.4011633366
 H        -7.1103809846        7.9891998075        3.0337202418
 H       -10.2104373980        9.3265402980        3.8373982937
 H        -9.4608650664        9.3097306036        2.2434107170
 H        -8.5040381662        9.1584085857        3.6827907950
 H        -9.5439867647        6.8459263258        5.3103773442
 H       -10.5298182905        5.6603238496        4.6044358307
 H       -11.1572709421        7.3368749574        4.8170561213
 H       -16.1632956595        5.9085706628        1.8533989297
 H       -16.3967876569        4.2557206374        2.3092673230
 H       -15.3403167985        4.5493874224        0.8613526307
 H       -16.2921822895        5.4437109977        4.1178090778
 H       -14.7331194048        5.3923062919        5.1361118373
 H       -15.4979647313        3.9688094590        4.6521991219
 H       -12.0514115872       -0.6361263600        5.4307028441
 H       -12.0571882539        1.0557694793        6.2814769476
 H       -10.9698949397       -0.3427579718        6.7573251711
 H        -8.6211188571        1.5790123446        4.6929602722
 H        -8.5654395598        0.3533039570        5.9847262198
 H        -9.2819659961        2.0462169502        6.2687355064
 H        -7.6265566868       -0.9111768607       -0.4221934896
 H        -6.9307810544        0.2353989465       -1.3642869481
 H        -8.5966662576        0.0034649214       -1.5258654133
 H        -5.9492243293        0.6825558661        0.9969706813
 H        -6.7737755035        2.1493874999        1.7478114564
 H        -5.9672388181        2.1494080578        0.0851825489
 H        -7.2312369249        7.4047542590       -3.9363849905
 H        -8.2725316172        7.6984420976       -2.4573774840
 H        -8.6849479286        8.2049548144       -4.0986522218
 H       -10.6315874179        6.5011611160       -2.3429286818
 H       -11.1675370006        5.4342934905       -3.5597099188
 H       -11.0342808701        7.0279343832       -4.1038781223
 H        -4.4235227853        1.8806099142       -7.7764819966
 H        -5.0967110474        1.3221534663       -9.3630153286
 H        -5.4099620318        0.4029639426       -7.8307472362
 H        -6.7580963108        2.7185418012      -10.1830780647
 H        -5.6038575906        3.7231788169       -9.3542619815
 H        -7.3954154336        3.9843289182       -9.2782941995
 Na      -10.2819590229        3.6943656854        2.0031238034
