117

 C        -8.2359546636        1.2340913893       -9.4281016840
 C        -7.6970965730        1.7450295749       -8.0377018761
 O        -8.1594488160        1.3275490870       -7.0116328649
 C        -6.4413781008        2.6291921457       -7.9652120473
 C        -6.3709804228        3.1803828539       -6.4555912295
 O        -5.2963803599        3.2033605537       -5.8970522923
 C        -7.6160270685        3.8274207951       -5.8652222717
 C        -7.8212115990        5.3227129917       -6.0363194079
 C        -9.0720077837        5.7671681033       -5.3342444456
 O       -10.1127023972        5.8157815928       -5.9724247911
 C        -9.0975335669        6.0784809612       -3.8423104702
 C        -8.1715776971        5.1734146384       -2.9990169085
 O        -7.0290337628        5.4797730711       -2.8702270605
 C        -8.8011299700        4.0619560462       -2.2164914879
 C        -7.7574997142        3.0657980149       -1.5934661400
 C        -8.3454459234        2.3994522988       -0.3656109238
 O        -9.4184344487        2.7774523260        0.0444104464
 C        -7.8098444648        1.0565871630        0.2600694211
 C        -8.5098136976        0.7438011071        1.6104219879
 O        -9.3370842837        1.3922250845        2.2307379751
 C        -8.2858369537       -0.7480869569        2.0966774556
 C        -8.6487478159       -0.9429495915        3.5626993972
 C       -10.1031757131       -0.5042235970        3.7492227627
 O       -10.8917414827       -1.0043777717        2.9568817319
 C       -10.5312935380        0.4726796081        4.9309282950
 C       -11.0144565509        1.7755148382        4.2050186905
 O       -10.3569247978        2.8029610699        4.2730261555
 C       -12.3513468221        1.7537800175        3.5519994766
 C       -13.3237369042        2.8783125406        3.9331115849
 C       -13.6462614178        3.8750353489        2.7229597817
 O       -12.8989785296        3.9538488300        1.7702441028
 C       -14.7920709030        4.9593909257        2.9051859361
 C       -13.8987476209        6.2093596549        3.0234507514
 O       -13.4155803015        6.4873696567        4.0889097566
 C       -13.4602062836        6.9346956086        1.6835848969
 C       -12.1958708677        7.7465398417        1.8103299974
 C       -10.9859655010        6.8557158102        1.9284213310
 O       -10.8024482376        5.9773311785        1.1048464831
 C        -9.9455683933        7.0334287515        3.0970977425
 C        -8.5488410467        6.3627193427        2.7234674632
 O        -8.4057649184        5.1801763170        2.4655049846
 C        -7.3536781367        7.2821269732        2.5967304919
 C        -9.9367316287        8.5065417406        3.5457982656
 C       -10.5499957082        6.1153151770        4.3181047847
 C       -15.6438709204        5.0875159418        1.5646049267
 C       -15.5797647773        4.7708401813        4.2060968594
 C       -11.5566786534       -0.2816853699        5.7761558597
 C        -9.4632944116        0.8093827451        5.8974010953
 C        -8.0596799299       -0.1928535948       -0.7928272531
 C        -6.2580148920        1.1693187746        0.5570702479
 C        -8.6049573717        7.5474118474       -3.6255633516
 C       -10.5443445664        5.8837780594       -3.3606609412
 C        -5.1432504028        1.7799747719       -8.2078534996
 C        -6.5297334547        3.7185687511       -9.0533257564
 H        -7.4144262193        1.0360046983      -10.1706231257
 H        -8.8401668949        1.9997512233       -9.8848109149
 H        -8.8722257169        0.3417279394       -9.2298615994
 H        -7.5169377090        3.5902968275       -4.8068492113
 H        -8.4760743870        3.2487152173       -6.2329042926
 H        -7.7659124704        5.6741645469       -7.0890725563
 H        -6.9283079045        5.8076215580       -5.7080677467
 H        -9.5640413698        3.5251449223       -2.8431093367
 H        -9.3852012655        4.4481005105       -1.3632942329
 H        -6.8020629463        3.6613149204       -1.2964739552
 H        -7.5991132097        2.2746889694       -2.3046020504
 H        -7.2600907810       -1.0218608079        1.9535754756
 H        -9.0226715460       -1.3750056180        1.5301097676
 H        -7.8724548301       -0.4389626843        4.0851919912
 H        -8.5080588201       -2.0533498513        3.8092533038
 H       -12.8835651049        0.7641441582        3.7142531415
 H       -12.3439118373        1.6366550906        2.4081240148
 H       -12.8631506696        3.5396209369        4.7339135347
 H       -14.2306896748        2.5161723946        4.4246696708
 H       -14.2698102655        7.5442250941        1.3523762916
 H       -13.2830192517        6.1735649873        0.9009591081
 H       -12.3078388783        8.3317137164        2.7974983498
 H       -12.1444224466        8.5529439687        1.0322827186
 H        -7.6401882758        7.9569951893        1.7934917989
 H        -6.4438366103        6.8230591437        2.1620573803
 H        -7.0789328182        7.7806603734        3.5163352764
 H       -10.7512219718        8.6364393084        4.2661577309
 H       -10.2004365706        9.2483175611        2.7424165759
 H        -8.9918870716        8.7836564137        4.0727504581
 H        -9.7633199325        5.6703746476        4.9628118978
 H       -11.1255472466        5.3183187231        3.8350250164
 H       -11.2771359293        6.6051586915        4.9712964996
 H       -15.9143237194        6.1748861898        1.4399895553
 H       -16.6044824056        4.5318174092        1.7160920175
 H       -15.1157397506        4.7108386379        0.6762288434
 H       -16.4646342982        5.3564608604        4.2097432347
 H       -15.1440244535        5.1977087995        5.1205232967
 H       -15.9119177160        3.7641017528        4.2395930006
 H       -12.2389452321       -0.8430898130        5.1552711453
 H       -12.0065851433        0.5165248616        6.3948726215
 H       -10.9300039200       -0.8167932311        6.4611766856
 H        -8.7539422531        1.5079870904        5.4578829865
 H        -9.0597535769       -0.0844740481        6.3764737253
 H        -9.9060980669        1.3485029426        6.7654231538
 H        -7.8616007676       -1.1407990174       -0.3351537124
 H        -7.5284504628       -0.0604122877       -1.7238168045
 H        -9.0855100432       -0.2699444841       -0.9541566127
 H        -5.7643396037        0.2482986524        0.8820238001
 H        -6.1940866734        1.9022168068        1.3789684545
 H        -5.8014486324        1.6799458629       -0.3521735899
 H        -7.6231069657        7.7029933391       -4.0283162585
 H        -8.4106748667        7.6431379069       -2.5949836646
 H        -9.3087859388        8.2648282041       -3.9229196307
 H       -10.7596447151        6.3368951911       -2.3535547822
 H       -10.9281918510        4.8548040660       -3.2652318578
 H       -11.2033502932        6.5389707179       -4.0661664626
 H        -4.3428464550        2.4744483460       -8.2106630769
 H        -5.1915240399        1.2727218493       -9.1874891162
 H        -5.0973038205        1.1211773883       -7.3394510359
 H        -6.5973695040        3.2741827328      -10.0611710956
 H        -5.6686208699        4.3546047770       -9.0541567962
 H        -7.3347902325        4.4116329428       -8.8303283411
 Na      -10.1521707438        3.6366818799        2.0427499916
