117

 C        -8.1956771428        0.9843127447       -9.3622484475
 C        -7.7213776338        1.4990703164       -7.9939200599
 O        -8.3575612517        1.3168056477       -6.9961965980
 C        -6.4654127812        2.4094496340       -7.8721903727
 C        -6.3075783308        3.2167162924       -6.5223431254
 O        -5.1981225661        3.4251377690       -6.1097655921
 C        -7.5445000717        3.8566810860       -5.8846125024
 C        -7.5351607156        5.3745424599       -5.8283241585
 C        -8.9492812358        5.7291969769       -5.3081213335
 O        -9.9531848618        5.5953490194       -5.9782569544
 C        -9.1148018430        6.1200306671       -3.7788742624
 C        -8.2657664299        5.0782728284       -3.0170243595
 O        -7.0942658310        5.3255600376       -2.8749398526
 C        -8.8877144546        3.7597877636       -2.5937142938
 C        -7.8802651968        2.9422147991       -1.7336059678
 C        -8.4610479282        2.3709451947       -0.4305804264
 O        -9.3510702349        2.8936276689        0.1752853799
 C        -7.8606667518        1.0145617766        0.1576711955
 C        -8.6012262712        0.4742943235        1.5488506703
 O        -9.4065789618        1.1898555627        2.1039413398
 C        -8.2910899688       -0.9154722253        2.1454536490
 C        -8.6881178301       -0.9692432688        3.6738557268
 C       -10.1804278978       -0.5582112796        3.9059356653
 O       -11.0962100584       -1.2331898712        3.4218741895
 C       -10.5712209842        0.5299506644        4.9789133931
 C       -11.2402836561        1.7346279562        4.1188806830
 O       -10.6945882585        2.8310593743        4.1308157808
 C       -12.5291067353        1.5376951820        3.3544937567
 C       -13.5221143120        2.7055811028        3.7089104335
 C       -13.5082715092        3.8833860198        2.7375727070
 O       -12.8770263185        3.8484382851        1.7024998630
 C       -14.5284979870        5.0353693672        2.9203940284
 C       -13.8907668418        6.4550156666        2.9634855849
 O       -13.5876701429        6.9817627797        4.0155762763
 C       -13.4508049996        7.1155350808        1.6172020265
 C       -12.1008793786        7.9596291613        1.7714145698
 C       -10.9567267797        6.9519923580        2.0169465008
 O       -10.8742872122        5.9406090860        1.3301915128
 C        -9.8453002791        7.1461969172        3.1115725725
 C        -8.4919854054        6.4347022160        2.6936366929
 O        -8.4423999999        5.2248534837        2.5604301765
 C        -7.2652616833        7.2680421591        2.4757191664
 C        -9.7031370336        8.6645227225        3.4288262846
 C       -10.3464238466        6.4055437863        4.4292141671
 C       -15.5915971565        4.8525916795        1.7658284756
 C       -15.3078771574        4.8544349800        4.2894178406
 C       -11.4686604337       -0.0810474956        6.0407741102
 C        -9.3247171566        1.0927254590        5.7100608156
 C        -7.7706212273       -0.0976521261       -0.8450694959
 C        -6.4091919614        1.4192915131        0.5612015551
 C        -8.4070523110        7.5660130896       -3.7369617602
 C       -10.5575902850        6.1161995948       -3.3439675273
 C        -5.1937946009        1.5258754213       -8.1653280433
 C        -6.6743476051        3.5084231344       -8.9280958610
 H        -7.4632340646        0.3021332368       -9.8599487339
 H        -8.5133367769        1.7812612343      -10.0121407523
 H        -9.1234520039        0.3666767381       -9.1829152915
 H        -7.8171335998        3.3056590527       -5.0020431157
 H        -8.4109660972        3.6394006692       -6.5712394532
 H        -7.3559826738        5.7400187071       -6.8407115037
 H        -6.7423182879        5.8339956648       -5.2440399247
 H        -9.1768880359        3.1551747700       -3.4809203942
 H        -9.8052155625        3.9850264201       -2.0567235072
 H        -7.1206361808        3.6586926151       -1.5155312447
 H        -7.4382741244        2.1886532295       -2.3938641905
 H        -7.2698126852       -1.2705162289        1.9613760439
 H        -9.0423310103       -1.5705492587        1.6548207727
 H        -8.0088401424       -0.4165678873        4.2340174761
 H        -8.5109445987       -2.0063284994        3.9288692081
 H       -13.0211314605        0.5848204355        3.6164370066
 H       -12.3981898657        1.4004069733        2.3102757522
 H       -13.2443079541        3.0343372967        4.6761939704
 H       -14.5193225752        2.4125985814        3.7857748119
 H       -14.2590082244        7.8325068190        1.2274081269
 H       -13.4234269939        6.3571778436        0.8669195004
 H       -12.3265956216        8.6995717042        2.5190671886
 H       -11.9149808521        8.5159381327        0.8876673390
 H        -7.3402465091        8.0227242451        1.6985855606
 H        -6.4902465373        6.6973308163        1.9350915464
 H        -6.9563265887        7.6496595284        3.4337533969
 H       -10.6152354054        9.1165428594        3.7184852206
 H        -9.2686526978        9.3339888175        2.7221878937
 H        -9.1444705987        8.7212144178        4.3722319590
 H        -9.8245321115        6.6895043177        5.3426019326
 H       -10.1376682017        5.3421053636        4.3189266693
 H       -11.4083017583        6.4781145176        4.5995704052
 H       -16.4743459881        5.3281778175        2.0944052748
 H       -15.8358996487        3.8175713129        1.5513240532
 H       -15.1474313911        5.2598833348        0.8965137939
 H       -15.6872423811        5.8396274698        4.6989462778
 H       -14.6431597700        4.5171699817        5.1383886560
 H       -16.1125320519        4.1724653110        4.1833387095
 H       -12.3350188639       -0.4746364281        5.4970814941
 H       -11.5669027683        0.6640993581        6.8236343091
 H       -10.9128081376       -0.9097611026        6.4237199441
 H        -8.7309776098        1.5363389834        4.9569172835
 H        -8.8396314450        0.3219320047        6.2248917288
 H        -9.5180351003        1.9421306964        6.4258346977
 H        -6.8530758469       -0.6927126328       -0.6864872070
 H        -7.5892301539        0.3089046235       -1.9014942720
 H        -8.6554656174       -0.7747464948       -0.8428218345
 H        -6.0429121139        0.6158633316        1.1475286161
 H        -6.3288107370        2.3400689115        1.0675128567
 H        -5.7652088461        1.3450991481       -0.3381405742
 H        -7.2639283378        7.5661297110       -3.5295698625
 H        -8.8272259159        8.1437155642       -2.9017959346
 H        -8.6370182726        8.0332862589       -4.7371547423
 H       -10.6996481117        6.2136794575       -2.3121195685
 H       -11.0845828366        5.2568865151       -3.5688338480
 H       -11.0902270800        6.8974382461       -3.8853885274
 H        -4.4366244666        2.1129896465       -8.6353975943
 H        -5.5336840687        0.8533881831       -8.9586317917
 H        -4.8558934407        1.0579758317       -7.2432034347
 H        -6.6414403801        3.0610680052       -9.9246288601
 H        -5.9679354941        4.3447986998       -8.8723414156
 H        -7.7050869172        3.8841513206       -8.8343995705
 Na      -10.3511415753        3.7817548821        2.1001717976
