117

 C        -7.8770319982       -0.4417628554       -8.4920520711
 C        -7.2442568155        0.6606429584       -7.6938313388
 O        -7.5636837615        0.7811949839       -6.5070254919
 C        -6.4188968120        1.8213006221       -8.4329676288
 C        -6.2024478473        3.0374809215       -7.3570020419
 O        -5.1072497095        3.1710879269       -6.8442160278
 C        -7.4536410334        3.8978635294       -7.0373706862
 C        -7.4987350362        4.4863448898       -5.5529110296
 C        -8.6293907558        5.4617280933       -5.1866642843
 O        -9.5775437266        5.7345875623       -5.8563185275
 C        -8.4600381047        5.8450272420       -3.6128989614
 C        -8.6501898760        4.6715608912       -2.6692273714
 O        -7.9446865936        4.5720740139       -1.6503753465
 C        -9.8661990417        3.7085059924       -2.8741713667
 C        -9.5489887650        2.3051144738       -2.3032306211
 C        -9.3810397365        2.4818368773       -0.7050700295
 O       -10.2397521471        3.2043025098       -0.2032643988
 C        -8.2577391405        1.6591874806        0.1440805681
 C        -8.9249219095        1.0420755002        1.4264852946
 O        -9.4101426860        1.8245190596        2.2097907754
 C        -8.7973955208       -0.4122575308        1.8807117662
 C        -8.8327408250       -0.4868387611        3.3879540308
 C       -10.2719609201       -0.3870701012        4.0572169984
 O       -11.1558995191       -1.0569282783        3.6113920110
 C       -10.5610357063        0.6858905996        5.1776807998
 C       -11.3099650629        1.9223002350        4.4714216330
 O       -10.7970352067        3.0450580966        4.3976087754
 C       -12.6730177401        1.7045805525        3.7309421011
 C       -13.6645912891        2.8619349127        4.0536670624
 C       -13.5794550902        4.0305924666        3.0474562753
 O       -12.7227270305        3.9824386904        2.1598142735
 C       -14.5970984275        5.1848111488        3.0264708274
 C       -13.7191337552        6.4589861738        3.0147629664
 O       -13.4352263809        6.9702482969        4.0850761513
 C       -13.3263686758        7.1112389401        1.6658378099
 C       -12.0462642389        7.9675710692        1.8897649408
 C       -10.6970683752        7.1054019878        1.9036705309
 O       -10.6723727573        6.1753248337        1.0663664855
 C        -9.5556968574        7.4382783539        2.8820852795
 C        -8.3277356975        6.4773297862        2.5718455093
 O        -8.5087782572        5.2830834472        2.2975111176
 C        -6.8764717854        6.9764455559        2.6160717314
 C        -9.1827366375        8.9497553211        2.7404626686
 C        -9.9135649367        7.0198718750        4.3778017915
 C       -15.4306020678        4.8686232110        1.7197333775
 C       -15.3864613488        5.2254029991        4.3237911982
 C       -11.5263030586       -0.0592962843        6.2468117124
 C        -9.3106199413        1.1792592049        5.9844049215
 C        -7.4778664819        0.5565977633       -0.6426015049
 C        -7.2494862257        2.7603710158        0.6328628428
 C        -7.0520917987        6.4489159658       -3.3909157640
 C        -9.5605241812        6.8573374399       -3.2156401999
 C        -5.0358260599        1.2702728508       -8.7968301155
 C        -7.1716772771        2.2576888365       -9.6906863599
 H        -7.2997039436       -1.0981738338       -9.1596096000
 H        -8.6311854335        0.1020451022       -9.1693690126
 H        -8.4240304440       -0.9647258636       -7.6543721399
 H        -8.3279357240        3.3106993595       -7.2798969705
 H        -7.3288735752        4.7780072342       -7.7066600519
 H        -6.4530864892        4.8869886943       -5.4077740708
 H        -7.6177559067        3.6779820061       -4.8157290804
 H       -10.2392612124        3.6552686272       -3.9272170986
 H       -10.7436683678        4.0422021451       -2.3050436814
 H        -8.5942979210        1.8655045945       -2.8163784930
 H       -10.2876752956        1.4737783398       -2.4682001772
 H        -7.9203290530       -0.8533254860        1.4566909055
 H        -9.5914387872       -1.0236074054        1.4089150003
 H        -8.0457330117        0.1256090119        3.8773966701
 H        -8.4913975633       -1.5635096557        3.5639605994
 H       -13.1771592271        0.7775991591        3.9172493917
 H       -12.4227685791        1.9099379083        2.6776427291
 H       -13.4938665252        3.3167145727        5.0855808457
 H       -14.7898648322        2.6062844495        4.0714847808
 H       -14.1973834818        7.6233346754        1.3112959662
 H       -13.0365600756        6.3960057884        0.8618030419
 H       -12.0913478231        8.4969129984        2.9030257163
 H       -11.8978691760        8.7061936222        1.0455679056
 H        -6.7175062305        7.8328590177        1.9982470363
 H        -6.2385586562        6.1382188348        2.5681985338
 H        -6.6057333003        7.3576490183        3.6176387385
 H        -9.3170668432        9.4525881424        3.7052942967
 H        -9.9715136628        9.3908538854        2.0969442151
 H        -8.1784047950        9.2018427751        2.4356118172
 H        -9.0377808745        6.8275394185        4.9696914075
 H       -10.6015839960        6.1845552160        4.3851607648
 H       -10.4746701528        7.7210633081        4.9755816590
 H       -15.8417759607        5.7065760327        1.1165891841
 H       -16.2266796662        4.1902922277        2.0213979686
 H       -14.7695783370        4.3190965089        1.0684788366
 H       -15.7894564967        6.1873451510        4.4306355838
 H       -14.7109604817        5.1895937263        5.1752829964
 H       -16.1980556373        4.4750072249        4.2832459799
 H       -12.1054086972       -0.6530759022        5.5964654738
 H       -12.1196138259        0.6938022128        6.7118623594
 H       -10.8385272238       -0.5489511583        6.9356400529
 H        -8.6049345382        1.6623668477        5.3036873697
 H        -8.8681967047        0.2663651317        6.4472027744
 H        -9.5337494816        1.8448371272        6.7573615316
 H        -6.9808794829       -0.2349602926        0.0095971879
 H        -6.6892833252        1.0144151610       -1.2406459166
 H        -8.1836249460       -0.0211466322       -1.2746954133
 H        -6.6643653706        2.2962078301        1.4051124410
 H        -7.7694502694        3.6144267657        1.0897818817
 H        -6.6515101257        3.1984724507       -0.1360065076
 H        -6.4025701348        5.7085788909       -3.6177337332
 H        -6.8464386651        6.5306305634       -2.3321639430
 H        -7.0096112854        7.3736771935       -3.8974625883
 H        -9.4078861852        7.2189503835       -2.1807671681
 H       -10.6069997343        6.4151807808       -3.2838227718
 H        -9.5197423176        7.7882215205       -3.7670440396
 H        -4.3635846609        2.0370125945       -9.1802573769
 H        -5.0977371436        0.4700838629       -9.5679371355
 H        -4.6373304349        0.8060412987       -7.8824282279
 H        -7.2651132520        1.3957521052      -10.3830930745
 H        -6.6908644193        3.0641576017      -10.2161470528
 H        -8.1128397724        2.6857036662       -9.3647551914
 Na      -10.3780856088        3.7774277886        2.0283049311
