117

 C        -7.3555684146       -0.8168433736       -7.9333498332
 C        -7.1749664174        0.5733788666       -7.4237514453
 O        -7.6660344412        0.9060555219       -6.3655279869
 C        -6.5392640984        1.6337413958       -8.4404299957
 C        -6.1830295416        2.8684736191       -7.6758107144
 O        -5.0003394547        3.0703914933       -7.5225668069
 C        -7.3309362868        3.5968860894       -7.0018208437
 C        -7.0597479866        3.9909658320       -5.4551967853
 C        -8.1812804738        4.9165016728       -5.0391340720
 O        -9.0746103337        5.2524001516       -5.8016713627
 C        -8.2864033429        5.4310279872       -3.6202118619
 C        -8.7073790174        4.2824052000       -2.6305181447
 O        -7.9831224876        3.8774993332       -1.7656617513
 C       -10.0026009430        3.5700030620       -2.8122078311
 C       -10.0785142910        2.2798414328       -2.0531282510
 C        -9.6942883996        2.5308586428       -0.5569521788
 O       -10.4858174352        3.2211100666        0.0344589915
 C        -8.4306089614        1.8501058589        0.1477736939
 C        -8.9393600949        1.2463020845        1.5136475094
 O        -9.6900693709        1.8417280581        2.2988397127
 C        -8.3171627245       -0.0814654001        1.8629068926
 C        -8.6885502121       -0.4511293224        3.3189727002
 C       -10.1668066132       -0.2243475618        3.7070939838
 O       -11.0820890890       -0.7336386127        3.0704512045
 C       -10.5298998204        0.6614410671        5.1095159287
 C       -11.3013101903        1.9495959665        4.5889958143
 O       -10.7115105445        2.9955934283        4.4417206118
 C       -12.7495118095        1.9984798210        4.1054078318
 C       -13.4263356420        3.3410971243        4.3488216552
 C       -13.6304437638        4.1988276691        3.0418723935
 O       -13.0352373615        3.9306673889        2.0283210092
 C       -14.5627187570        5.4301108737        2.9764002334
 C       -13.5681700528        6.7052762704        3.0566737381
 O       -13.1037925858        6.9773916669        4.1453438964
 C       -13.2828183178        7.5135084800        1.8338544894
 C       -11.9490357053        8.2242718393        1.8619202811
 C       -10.8132794728        7.1942273702        1.8928028650
 O       -10.7980235352        6.2713257198        1.1494087625
 C        -9.5966921655        7.4896883327        2.9204971733
 C        -8.4625928453        6.5027814473        2.6432634867
 O        -8.5780656980        5.3130366293        2.4855051523
 C        -7.0089467715        7.0424078100        2.5855513316
 C        -9.3089803925        9.0427249887        2.8508650074
 C       -10.0157233672        7.1488324299        4.3924034487
 C       -15.3893770942        5.3623115864        1.7110305414
 C       -15.5619947778        5.6409445999        4.1789997444
 C       -11.3938841423       -0.3395281473        5.9426040212
 C        -9.2016470690        1.0872728820        5.7928935091
 C        -7.8429716582        0.8220784814       -0.8658430395
 C        -7.3079889505        2.9226786891        0.5803664591
 C        -6.9461345709        6.0270621833       -3.1657797873
 C        -9.3163533191        6.5300456393       -3.4845020705
 C        -5.2566684161        1.2035276672       -9.1707143433
 C        -7.5666195291        2.0402818483       -9.5343551072
 H        -6.7357306629       -1.0763268178       -8.8744586291
 H        -8.4457779517       -0.8432396236       -8.2193398797
 H        -7.2021727559       -1.5016464873       -7.0547894590
 H        -8.2407363508        2.9831386181       -7.1680797178
 H        -7.3427818615        4.5443447865       -7.4452225998
 H        -6.0611248385        4.4624285508       -5.3290520745
 H        -6.9814428993        3.1342121589       -4.7407621428
 H       -10.2293130617        3.2564863541       -3.8327594625
 H       -10.8586406023        4.2327486707       -2.5192989158
 H        -9.5574743755        1.4510416959       -2.5451255990
 H       -11.1915422568        1.9991674500       -1.9911310834
 H        -7.2382960749        0.1036860045        1.7109468734
 H        -8.5623796464       -0.7069247314        1.0053517311
 H        -8.0479850413        0.2604785850        3.9703657864
 H        -8.4476151519       -1.4705619899        3.6480294125
 H       -13.3922425843        1.3194524888        4.6362637368
 H       -12.8328445810        1.7461294384        3.0426561588
 H       -12.8889915587        4.0619050143        5.0824490548
 H       -14.4654599690        3.2618317333        4.8598056068
 H       -13.9757960909        8.3142225226        1.7036376176
 H       -13.2703105300        6.7816131999        0.9697411296
 H       -11.8847145171        8.8633904229        2.7960026666
 H       -11.8602440510        8.8669837475        0.9276056853
 H        -7.0048405163        7.6987425208        1.6990153085
 H        -6.1932436316        6.2880009802        2.5390503655
 H        -6.7596608011        7.6421702282        3.4353662116
 H        -8.2203177426        9.1807129472        2.9056297459
 H        -9.8387201097        9.5795324498        3.6149429180
 H        -9.6813356285        9.4147857553        1.8986590392
 H        -9.1798489814        7.3246551017        5.0524183535
 H       -10.3416923848        6.1450638482        4.6171462345
 H       -10.8345684429        7.7889071544        4.7104009739
 H       -15.7084232456        6.3376658308        1.3951412908
 H       -16.3309880783        4.8652437262        1.8139389678
 H       -14.8499395777        4.8366327322        0.9184078912
 H       -15.9380742959        6.7006656501        4.0924534321
 H       -15.0055277098        5.5778762716        5.0983610431
 H       -16.4623809914        5.0319495644        4.1239697929
 H       -11.8706018274       -0.9969557441        5.2302185825
 H       -12.0236412816        0.2556128436        6.5571311853
 H       -10.6850614115       -0.9223369786        6.4996974659
 H        -8.6815867011        1.8314303929        5.2016993320
 H        -8.5941069914        0.2699398723        6.1024443715
 H        -9.4874121824        1.6209688697        6.7155993978
 H        -7.0348524288        0.1669220227       -0.4995762516
 H        -7.2799716611        1.5515729312       -1.5291161193
 H        -8.5724522689        0.2911122063       -1.5529724913
 H        -6.6198426985        2.4606073996        1.2948909966
 H        -7.6829784292        3.8034134632        1.0244823807
 H        -6.6243892083        3.1411492029       -0.2169018720
 H        -6.2616486758        5.3079231543       -2.6368528419
 H        -7.2501338834        6.7857564982       -2.5262618848
 H        -6.5028759873        6.4668990322       -4.0289283909
 H        -9.3325830460        6.8834979761       -2.4391235026
 H       -10.3233778035        6.2692863771       -3.7478672360
 H        -9.1040600263        7.3127019754       -4.2310830140
 H        -4.8750511748        1.9662109030       -9.8975967328
 H        -5.4181632157        0.3291226451       -9.7867468289
 H        -4.4171365892        1.0434533759       -8.4860133317
 H        -8.0046750029        1.1652888718       -9.9968548907
 H        -7.0295820309        2.6382758890      -10.2832192211
 H        -8.4343139308        2.5433766360       -9.1171979403
 Na      -10.5719915477        3.9813716504        2.0177159300
