117

 C        -6.7742822758       -1.1984126156       -7.5375966953
 C        -6.9226534053        0.2364198870       -7.2809199641
 O        -7.3837913116        0.7293478605       -6.2589093194
 C        -6.5299330177        1.2021681371       -8.4553098376
 C        -6.1995627807        2.5910668000       -7.8259738322
 O        -5.0298414170        2.9250025645       -7.5974479289
 C        -7.4159764244        3.3944451532       -7.4467162118
 C        -7.1649135971        4.3621393362       -6.3230198218
 C        -8.3634829272        4.8666187780       -5.5876327723
 O        -9.4460875024        4.7778545881       -6.0935552730
 C        -8.1298154551        5.3581891493       -4.0843502849
 C        -8.3534704555        4.0852075539       -3.2040224356
 O        -7.4473093752        3.3764994150       -2.8566070817
 C        -9.8143052782        3.6942245707       -2.9124447282
 C        -9.8215945414        2.3878772515       -2.0426163618
 C        -9.3528687363        2.7560368774       -0.6148360277
 O        -9.6483071894        3.8241178298       -0.1590710870
 C        -8.3386744325        1.7553978228        0.1778114246
 C        -9.0416863988        1.3012180365        1.4146947354
 O        -9.6336122242        2.1048116928        2.1461098712
 C        -9.1465529348       -0.2051120622        1.7331029970
 C        -9.3064212242       -0.5093994112        3.2512251926
 C       -10.6520660106       -0.1044081647        3.9572320456
 O       -11.6593725976       -0.5304191966        3.4536957911
 C       -10.7997025992        0.7030339459        5.3144624577
 C       -11.3507849026        2.0434758922        4.6924720356
 O       -10.5654791675        2.9758877161        4.7060470477
 C       -12.7131869453        2.2270385792        4.1124277361
 C       -13.2089251934        3.7337759813        4.3045160738
 C       -13.6339488403        4.4029173492        2.9309760253
 O       -13.0663005057        4.0130002824        1.9407770680
 C       -14.6486132432        5.6691403585        3.0016129147
 C       -13.7229588871        6.9611356486        3.2184377676
 O       -13.4963850860        7.2700861663        4.3742349330
 C       -13.2730816002        7.8400113076        2.0270168414
 C       -11.8963457002        8.4328826082        2.3080303359
 C       -10.8579495611        7.3090897359        2.3712332846
 O       -11.0625930028        6.2523124170        1.7587121333
 C        -9.5842519151        7.5713273575        3.1949971250
 C        -8.3962432714        6.6554611489        2.8449790343
 O        -8.3753305303        5.4563014485        3.0394323639
 C        -7.1717391813        7.2440779563        2.1342173069
 C        -9.2983011103        9.1143276966        3.0434244867
 C        -9.9408133121        7.3003406873        4.7197961915
 C       -15.4062215864        5.6622345696        1.6947770164
 C       -15.5698470789        5.5298465793        4.2140671678
 C       -11.7161295853        0.0075257897        6.3815114282
 C        -9.4543538496        0.8725708270        6.0084371962
 C        -7.7764201313        0.6444221162       -0.8117362490
 C        -7.2019161846        2.6400237773        0.5772620714
 C        -6.7374631413        5.9346220063       -3.8400133566
 C        -9.2182766012        6.2629308759       -3.7759516662
 C        -5.3771666434        0.7151436206       -9.3181811718
 C        -7.7603488585        1.2551006712       -9.3866011077
 H        -5.7865374275       -1.5144475860       -7.1959794320
 H        -7.0428479277       -1.4040244335       -8.5137376330
 H        -7.4739193701       -1.6453360229       -6.9289170156
 H        -8.2553529974        2.6563308449       -7.2121078480
 H        -7.8850539092        3.8967981530       -8.3057317083
 H        -6.6460131367        5.2571998439       -6.6926132995
 H        -6.4986667179        3.8618576968       -5.6334541101
 H       -10.3182318760        3.4346937115       -3.8288615831
 H       -10.4369909304        4.4046186195       -2.4145164763
 H        -9.3514249811        1.5456731599       -2.4456313052
 H       -10.8757234078        2.1252954285       -1.8382910781
 H        -8.1890651794       -0.6362033690        1.4361617195
 H       -10.0003147711       -0.5081835411        1.1183547278
 H        -8.4161259107       -0.0601212265        3.7120561290
 H        -9.3129761249       -1.5174061992        3.4692231690
 H       -13.4350805206        1.4958775799        4.4436183053
 H       -12.6799293590        1.9772030150        3.0233938658
 H       -12.4189034314        4.3226377509        4.5962281295
 H       -14.0425707687        3.8689589717        4.9726329670
 H       -13.9550293785        8.6151343675        1.8757777469
 H       -13.1936150743        7.1549243584        1.1183522922
 H       -11.9071439686        9.0110194376        3.2101400826
 H       -11.5529192408        9.1061674491        1.5809257444
 H        -7.4807027488        7.3615704388        1.1099224396
 H        -6.2966857836        6.6113550274        1.9591313691
 H        -6.9625089085        8.2007364910        2.5746533049
 H        -8.3201427321        9.3222735659        3.5516053303
 H       -10.0051289207        9.6884518200        3.6605314985
 H        -9.2684179668        9.3447382365        1.9807373924
 H        -9.0582323995        7.5309799238        5.3138250305
 H       -10.1886775779        6.2692229097        4.9796791460
 H       -10.6939515511        8.0245399004        5.0686714457
 H       -16.1879866732        6.4171143460        1.6679386396
 H       -15.8239661861        4.7035567605        1.4163258165
 H       -14.8617661771        6.0666966162        0.8337867292
 H       -16.2810715880        6.3557752484        4.2366244553
 H       -15.0249007556        5.6187848777        5.1330423627
 H       -16.0615380945        4.5438044691        4.2593571148
 H       -12.7312997441       -0.1465547210        5.9760947177
 H       -11.7466657428        0.7897150210        7.1526507680
 H       -11.1968113870       -0.8467601565        6.8353423296
 H        -8.6489965191        1.4788340219        5.5598354359
 H        -8.9912519204       -0.1155362475        6.1594135421
 H        -9.6045768406        1.2470848465        7.0397660326
 H        -7.0004208292        0.0958634837       -0.3379816546
 H        -7.3679746197        1.0613503551       -1.7333338430
 H        -8.4866063239       -0.1404981419       -1.1286362911
 H        -6.3600623497        2.1978132147        1.1602686737
 H        -7.5687184128        3.4446405947        1.1975756810
 H        -6.8804109621        3.1531463214       -0.3315269717
 H        -5.9991547498        5.1289033090       -3.5375064931
 H        -6.7908731304        6.6709054648       -3.0843897567
 H        -6.4113800603        6.4265846441       -4.7323434454
 H        -9.2633489082        6.6111672554       -2.6983379748
 H       -10.1480167250        5.7204100535       -3.9703675730
 H        -9.1620152169        7.2082981527       -4.3580209171
 H        -5.3054496134        1.2989391334      -10.2501415583
 H        -5.3994291205       -0.3224797364       -9.5650661150
 H        -4.4109940288        0.8113421170       -8.8511975505
 H        -7.9147682993        0.2338437385       -9.7982029970
 H        -7.5719444421        1.8963199412      -10.2686015749
 H        -8.6446209431        1.6556732518       -8.8736519365
 Na      -10.2965765445        4.0835843673        2.3801040587
