117

 C        -7.1068032319       -1.1245951708       -7.7577877273
 C        -7.0942147930        0.4029870032       -7.4455478040
 O        -7.5368030326        0.7718691818       -6.3871571242
 C        -6.5131105290        1.3409811026       -8.5014812687
 C        -6.0840183283        2.7376318395       -7.8263098990
 O        -4.9144421045        3.0202061715       -7.7728820188
 C        -7.2442731974        3.6946713162       -7.2060440830
 C        -7.0318709349        4.1804087657       -5.7048885991
 C        -8.2470224796        4.9871167086       -5.1702613908
 O        -9.2568012611        5.0511951361       -5.8539864919
 C        -8.3005466148        5.4241099260       -3.6566112232
 C        -8.6165174984        4.1279301596       -2.8601184601
 O        -7.7662348793        3.6779976796       -2.1209821013
 C       -10.0190681100        3.5769825160       -2.8738343881
 C       -10.1299606663        2.3466544028       -2.0598504701
 C        -9.5279480341        2.5966650072       -0.6509914958
 O        -9.9819814696        3.4907258624        0.0309272603
 C        -8.5302077833        1.7020933440        0.0474976849
 C        -9.0931189706        1.0924343390        1.3725165399
 O        -9.8275605141        1.7098060630        2.1637392126
 C        -8.5369165002       -0.2876907119        1.8128612745
 C        -8.7808354908       -0.4433703114        3.3389630224
 C       -10.2278072937        0.0359769592        3.6614124537
 O       -11.1444175061       -0.3493268498        2.9009431217
 C       -10.5757894620        0.8359444437        4.9872222509
 C       -11.2420482523        2.2749232431        4.6037970116
 O       -10.5523350029        3.2935980642        4.4729309829
 C       -12.6636447387        2.3265434115        4.1435676861
 C       -13.4521816818        3.6143868078        4.5170034890
 C       -13.6748155847        4.3594243629        3.0984366944
 O       -12.9621243913        4.1443927578        2.1610029045
 C       -14.7009434576        5.4996559712        2.9871385816
 C       -13.5889517689        6.6308839832        3.0390214537
 O       -12.9804084506        6.7078171586        4.0828715954
 C       -13.2526365730        7.4058964839        1.8121372020
 C       -12.0252747694        8.2518583497        1.9863536175
 C       -10.8653571417        7.2681453385        2.1658921730
 O       -10.9410001688        6.2275262347        1.5922356642
 C        -9.5869703266        7.5515531675        3.0843359754
 C        -8.3719908640        6.5310776691        2.6975495740
 O        -8.5596034480        5.3541368786        2.7805685195
 C        -7.0337014648        7.1325820396        2.3188232080
 C        -9.1320230680        9.0638884709        2.9688341813
 C       -10.0302768905        7.2557242201        4.5262772733
 C       -15.5603139404        5.3844468649        1.7242603100
 C       -15.6015703882        5.5899554409        4.2805083006
 C       -11.6651523132       -0.0595474731        5.7279593039
 C        -9.3964814845        1.0942390041        5.9328782661
 C        -7.6927353620        0.7440659095       -0.7356191416
 C        -7.5340618679        2.7448513797        0.7200926443
 C        -6.9663939685        5.9887788613       -3.1028600336
 C        -9.3647716295        6.6057145072       -3.5731897534
 C        -5.3068232973        0.7769165966       -9.3554882812
 C        -7.6818377006        1.6476845238       -9.4912348360
 H        -6.3478959380       -1.2947216233       -8.5120253946
 H        -8.0683674801       -1.3477554352       -8.1312503398
 H        -6.9509897848       -1.7232198620       -6.9071496585
 H        -8.2003989132        3.1190756226       -7.3585484802
 H        -7.2934769802        4.6135018264       -7.8154462447
 H        -6.0984382565        4.7305959638       -5.6235025325
 H        -6.8383264834        3.3101225754       -5.1282380144
 H       -10.4343263342        3.3914410888       -3.8725195375
 H       -10.6938551526        4.2934174585       -2.4105587229
 H        -9.6427863239        1.4399304379       -2.4774001821
 H       -11.2008623996        2.1376285207       -1.8097915664
 H        -7.4642308082       -0.3666077883        1.6278056658
 H        -9.0604269740       -1.0694012015        1.2319135220
 H        -8.0686162103        0.2093896678        3.9267297834
 H        -8.5730947073       -1.4614631338        3.5429353722
 H       -13.2891282393        1.4642959297        4.4010999377
 H       -12.5903847940        2.1882816780        3.0035383298
 H       -12.9498554840        4.2610130397        5.1365311130
 H       -14.4077563046        3.4730984012        4.9793028553
 H       -14.0669371765        8.0176833836        1.6665646883
 H       -13.0340459564        6.7346348890        0.9325077171
 H       -12.0781241777        8.8592006179        2.8846404523
 H       -11.8881912598        8.9076291355        1.1566658218
 H        -7.0245949840        7.7780914694        1.4311806188
 H        -6.5120386840        6.2522621303        1.8926982233
 H        -6.4756327573        7.5258563707        3.1986125435
 H        -8.7665414652        9.4368974648        3.9315147730
 H       -10.0597033556        9.6007075220        2.7594698072
 H        -8.5376074488        9.2406384698        2.1095704737
 H        -9.2773663112        7.4839863137        5.2752709348
 H       -10.2261779222        6.1901268744        4.7318986292
 H       -10.9495327167        7.8383367413        4.7570875173
 H       -15.9293472955        6.3223998132        1.2685721285
 H       -16.4332255781        4.7577348490        1.8583393234
 H       -14.9781189171        4.8677198712        0.9282364101
 H       -16.4421589776        6.2354741120        4.1084530910
 H       -14.9991433727        5.8003915162        5.1271167040
 H       -16.0341987863        4.5657721435        4.4924113080
 H       -12.3732429737       -0.1970457819        4.9111804420
 H       -12.0378863840        0.6028909045        6.5055410585
 H       -11.2696847083       -1.0503160635        6.0434197586
 H        -8.5375148307        1.5304970550        5.3700605296
 H        -8.9676372082        0.0922752414        6.2024937030
 H        -9.6079810249        1.6446797943        6.8169756272
 H        -6.8440026465        0.5233939417       -0.1571208482
 H        -7.3733532229        1.1873041099       -1.6302082970
 H        -8.2020113185       -0.1426075104       -1.0612204009
 H        -6.8451497102        2.2803433562        1.4650450428
 H        -8.0689534523        3.5596861068        1.2449899326
 H        -6.8510700490        3.1017059284       -0.0291303565
 H        -6.1701965221        5.3275013003       -3.5449696724
 H        -7.1087775903        6.1071372962       -2.0205496897
 H        -6.7459852477        6.9708277203       -3.5763400966
 H        -9.7499218025        6.7400864846       -2.5712471721
 H       -10.2237258668        6.4511548265       -4.2191694334
 H        -8.9317369182        7.4922040294       -3.9293452920
 H        -4.9476321952        1.5709122766      -10.0216212353
 H        -5.6312294386       -0.0493301373       -9.9673707353
 H        -4.4133410706        0.4442435341       -8.8540336760
 H        -7.9780833416        0.7641864285      -10.0663136379
 H        -7.3363026171        2.4167872092      -10.1518249033
 H        -8.5921759629        1.8777633791       -8.9723401529
 Na      -10.5252565213        4.0305265638        2.3960079138
