117

 C        -5.8879113527       -1.7977764244       -6.9831100598
 C        -6.6305521991       -0.4190684140       -7.2166721664
 O        -7.4798816959       -0.0940826376       -6.4090942719
 C        -6.4829880102        0.5331178538       -8.5642360690
 C        -6.6013594005        2.0152879079       -8.0728666149
 O        -5.5472106507        2.6582743980       -8.0743348633
 C        -7.8820676308        2.6051347037       -7.4674674636
 C        -7.7356860982        4.1012281728       -7.0121754462
 C        -8.6243055070        4.3992731462       -5.8545444537
 O        -9.6624845847        3.8700076396       -5.5702191169
 C        -8.1106408409        5.4190533734       -4.6765917879
 C        -7.7455187481        4.4444935070       -3.5293792523
 O        -6.6840230242        3.8934594617       -3.4978657412
 C        -8.8242758334        4.2219849326       -2.3824505625
 C        -8.7315753251        2.8359570946       -1.8193419689
 C        -9.3397055654        2.6877995409       -0.3810924575
 O       -10.1811688149        3.4508649784        0.0127910414
 C        -8.6678936184        1.4670220072        0.3856944023
 C        -9.5641762266        1.0237874153        1.5825689673
 O       -10.0434405585        1.7487317562        2.4048875663
 C        -9.6354928050       -0.4567592788        1.8690507217
 C        -9.9519223675       -0.7815139517        3.3976660152
 C       -11.1269201341        0.0684365751        3.8959595062
 O       -12.1876675427        0.0702010600        3.3410226937
 C       -10.8231673641        0.9849432936        5.1302143537
 C       -11.2856974459        2.4651467633        4.7797575028
 O       -10.4718766358        3.3523207818        4.5315810767
 C       -12.7388092879        2.7132464548        4.3817987299
 C       -13.2311835202        4.1375723286        4.4972113513
 C       -13.3459198140        4.8212947264        3.0429117470
 O       -12.5249008446        4.6954754041        2.1542267105
 C       -14.5758434007        5.7884003682        2.7974007772
 C       -14.0511632151        7.1299732634        3.4945869332
 O       -14.1289898198        7.2250322660        4.7137768778
 C       -13.2912778009        8.2126596577        2.6499167576
 C       -11.8953026672        8.6147129484        3.2154176519
 C       -10.6747307603        7.6900414273        2.7786831881
 O       -10.8013562074        6.8763461146        1.8688873587
 C        -9.3519861174        7.7887504700        3.6381895836
 C        -8.2452666231        7.1953469965        2.6640747032
 O        -8.3371524449        6.0124896282        2.3196877536
 C        -6.9878373449        7.9737142120        2.2096978338
 C        -8.9816821848        9.1920995045        4.2042403712
 C        -9.6210563956        6.8037931282        4.7486153141
 C       -14.7970548838        5.9419901619        1.2305662570
 C       -15.9178891300        5.3719400102        3.5152100533
 C       -11.8050998356        0.4791337709        6.2793815852
 C        -9.3972188825        0.9826950525        5.5140994259
 C        -8.3464340664        0.3145296817       -0.5710720461
 C        -7.3445892829        2.0007564471        1.0193187836
 C        -6.8160311128        6.1045181467       -5.1902116338
 C        -9.2857278864        6.3835358728       -4.3227538608
 C        -5.0866105036        0.2909216929       -9.1452593193
 C        -7.5781645072        0.1698091112       -9.5770725562
 H        -4.8069269733       -1.7297268525       -7.1703476682
 H        -6.2779844049       -2.3967103310       -7.7604474824
 H        -6.1344869967       -2.0797300646       -6.0110634569
 H        -8.0128254068        1.9541574606       -6.5992580595
 H        -8.8196447208        2.5340645577       -8.1436882557
 H        -7.9200413235        4.7646823569       -7.8531746821
 H        -6.6934070432        4.2654299087       -6.7778612261
 H        -9.8055945672        4.4197335462       -2.7871571104
 H        -8.6480186217        4.9321168251       -1.6281270504
 H        -7.7020974570        2.4419624505       -1.9565685517
 H        -9.3258558858        2.1431896406       -2.4203493415
 H        -8.7796733596       -1.0184383575        1.4967467952
 H       -10.4818188245       -0.8349936365        1.2810245039
 H        -8.9987814982       -0.7321040276        3.9547043444
 H       -10.2457099058       -1.8127655383        3.5037903430
 H       -13.4341349673        2.1598123229        5.0488305657
 H       -12.8033348169        2.3073280323        3.3540391850
 H       -12.5798248921        4.7217798989        5.0477771493
 H       -14.1869612899        4.2779305553        4.9045702698
 H       -13.8486885013        9.1204496709        2.5648954306
 H       -13.2249847555        7.9096185640        1.6117546586
 H       -11.8189225954        8.5208808385        4.2499966078
 H       -11.7950319794        9.6607282135        2.9467180572
 H        -7.2915208444        8.6417226723        1.4351364599
 H        -6.2250890468        7.2342746040        2.0186907092
 H        -6.5563257772        8.5763176297        3.0212079866
 H        -8.2115173797        9.0171239466        4.9835616362
 H        -9.8308919248        9.6478589776        4.8048736438
 H        -8.6993820642        9.9454338178        3.4614874611
 H        -8.8775837809        6.8983494607        5.5166868662
 H        -9.5092559437        5.8250202333        4.2848624106
 H       -10.6299722455        6.8446675328        5.1406783442
 H       -15.0210332464        6.9612973006        0.8548409844
 H       -15.6565883834        5.3618290207        0.9074431801
 H       -13.9623467271        5.4319735951        0.7343075197
 H       -16.6931073219        6.0570461625        3.3193901846
 H       -15.7578931164        5.3319398993        4.5587318403
 H       -16.3855006799        4.3773982715        3.2186762031
 H       -12.8652617272        0.5958061463        6.0675209778
 H       -11.5112266451        1.0050364527        7.1870941134
 H       -11.7083223391       -0.6012147483        6.4515975882
 H        -8.7047341472        1.3236201504        4.7355971573
 H        -9.0269307462       -0.0359271668        5.7670537636
 H        -9.1391877781        1.4956267324        6.3788286459
 H        -7.7958073254       -0.4847001508       -0.0251004167
 H        -7.7796608263        0.5775745793       -1.4380883507
 H        -9.2847803943       -0.0472988376       -1.0184858496
 H        -6.8362699945        1.2328808548        1.5872915949
 H        -7.5573892720        2.8028600590        1.7445821548
 H        -6.5983282809        2.2718162516        0.3162097124
 H        -6.0636210844        5.4161079958       -5.5869787587
 H        -6.3897174963        6.7695614862       -4.5166595099
 H        -7.0673601950        6.6575224206       -6.0426737718
 H        -9.1904845146        6.7671172706       -3.2531234997
 H       -10.2875091196        5.8751006279       -4.4882627111
 H        -9.2308641120        7.1905421705       -5.0546989785
 H        -4.8074341807        1.0118183760       -9.8987588516
 H        -4.9308174903       -0.7046049937       -9.5878093111
 H        -4.2892172152        0.4356320348       -8.4197795101
 H        -7.3916822255       -0.7746308947      -10.1200821454
 H        -7.7110229755        0.9387034383      -10.3135542488
 H        -8.4904924599       -0.0297858196       -9.0264904145
 Na      -10.2117167920        4.3376417101        2.2540734523
