117

 C        -5.5632274536       -1.7455824675       -6.9657022462
 C        -6.6068013674       -0.6168437423       -7.1922799036
 O        -7.5899464686       -0.6135003847       -6.4749019703
 C        -6.5623854612        0.2962063003       -8.4548146223
 C        -6.6784435080        1.8031307942       -8.0781148038
 O        -5.6785228242        2.5195761309       -8.2070739429
 C        -7.9679448514        2.3917078791       -7.4472644284
 C        -7.8625273215        3.7963467282       -7.0014472247
 C        -8.6294925655        4.0996665633       -5.7213238722
 O        -9.5640805500        3.4459714166       -5.3292066687
 C        -8.1695280403        5.4096547767       -4.8560794570
 C        -7.7073789175        4.6123606172       -3.6033404006
 O        -6.5720650549        4.2559281105       -3.5547135626
 C        -8.6689519147        4.2758632975       -2.4476896907
 C        -7.9625245084        3.3635987145       -1.4039916492
 C        -8.9736015462        2.8893537968       -0.3639461499
 O        -9.8644077013        3.5899743782       -0.0041977352
 C        -8.5798282263        1.4799121832        0.3409835467
 C        -9.5637318390        1.1317883421        1.4823849615
 O       -10.0489838204        1.9857053798        2.1696490661
 C        -9.9749713877       -0.3956741984        1.7707293377
 C       -10.0660900759       -0.5928082040        3.2828531804
 C       -11.1675507828        0.3156973218        3.9174792736
 O       -12.3335267690        0.1382032129        3.6290778623
 C       -10.9102575379        1.2792648513        5.1522703268
 C       -11.4056270081        2.6780006817        4.7062011279
 O       -10.5417009983        3.4733698133        4.3809082863
 C       -12.8744991697        2.9023509157        4.6271768831
 C       -13.0797394745        4.4167507400        4.3890860552
 C       -13.3315488898        4.8357877228        2.9542655152
 O       -12.6745300799        4.4307006225        2.0044963593
 C       -14.4690489493        5.9596536768        2.6730899992
 C       -13.9869707942        7.2667844134        3.3983914734
 O       -13.9839012372        7.3465062587        4.6180057692
 C       -13.2200615706        8.3066963577        2.6114979879
 C       -11.8894910032        8.5793281102        3.4073157092
 C       -10.8329907028        7.4513550768        3.1015861005
 O       -10.9808860601        6.6751568728        2.1840477798
 C        -9.3780400824        7.5067052872        3.7958538963
 C        -8.3333344231        6.9522689436        2.7747103741
 O        -8.4553430514        5.8842860750        2.1497340867
 C        -7.1336166761        7.8703946394        2.4543812663
 C        -8.9416134035        8.8133319126        4.2998603618
 C        -9.3863912678        6.5381585399        5.0061802842
 C       -14.6220767973        6.1206408409        1.1613392469
 C       -15.8423880344        5.5386802390        3.3245227180
 C       -11.8197732776        0.7216561136        6.2973783427
 C        -9.4259520926        1.3495628477        5.4825193555
 C        -8.4456708941        0.4354446678       -0.8254050960
 C        -7.1995764699        1.5738949493        0.9906839424
 C        -7.0101831489        6.3274712082       -5.2954771338
 C        -9.4963293429        6.2457365505       -4.6276728523
 C        -5.1906401359        0.2475156968       -9.1699383383
 C        -7.7842561436       -0.0760076042       -9.3469139951
 H        -4.6680673185       -1.2437361945       -6.4716888036
 H        -5.1358665178       -2.0964034344       -7.9495767907
 H        -6.0648887355       -2.4531598258       -6.2840793398
 H        -8.2243180542        1.8180989901       -6.5693173286
 H        -8.7177669793        2.2936062057       -8.2403270835
 H        -7.9805946693        4.6055820848       -7.7556757736
 H        -6.7628331453        3.8675177825       -6.8957898802
 H        -9.6058723811        3.8548097137       -2.8351714335
 H        -8.9237786147        5.2806318293       -1.9995023246
 H        -7.2756829975        3.8773642546       -0.7453454256
 H        -7.3616261407        2.6546030266       -1.8430543483
 H        -9.2549389203       -1.0709406169        1.2706533508
 H       -10.9238665790       -0.7846946752        1.3804430373
 H        -9.1172923594       -0.4179603975        3.7141789489
 H       -10.3432508308       -1.6311329237        3.5106202242
 H       -13.2457709228        2.8226218440        5.6442194999
 H       -13.3640788821        2.2404553254        3.9394846343
 H       -12.1362233232        5.0460604422        4.5983166312
 H       -13.8228449081        4.9127144726        5.0222474231
 H       -13.8879755303        9.2512819695        2.5926326083
 H       -13.1770964679        8.0318607654        1.5856214670
 H       -12.2001188399        8.5059376867        4.4809739636
 H       -11.3685311261        9.5617664382        3.1790403599
 H        -7.4315753808        8.9022219065        2.2173209381
 H        -6.5125618414        7.3165741552        1.7905813587
 H        -6.4249875100        7.8716571694        3.3010520993
 H        -7.9718235317        8.8548244089        4.7168467938
 H        -9.5352371214        9.1184967992        5.1480751673
 H        -9.0732582180        9.5439327829        3.5282595695
 H        -8.3820393656        6.1745221317        5.2791009626
 H        -9.9944221031        5.6567298109        4.7381417683
 H        -9.8401488342        7.0722843269        5.8527172504
 H       -14.9916219311        7.1460923424        1.0185330516
 H       -15.3980914275        5.4226777505        0.8397885237
 H       -13.7258140942        5.9386852184        0.5491976807
 H       -16.6708159475        6.1242835630        2.9427408888
 H       -15.8483454734        5.5904835340        4.4194870672
 H       -16.0303342110        4.4379612341        3.1628048682
 H       -12.7577355551        0.2943024604        5.9306613975
 H       -12.0501358080        1.5654220568        6.9844065189
 H       -11.3520212986       -0.0245901879        6.9535828910
 H        -8.7693165786        1.6826175623        4.6677568863
 H        -8.9492015231        0.4042826478        5.8434598838
 H        -9.2369584007        2.0058643356        6.2572038752
 H        -8.5287498576       -0.5895504601       -0.3697880518
 H        -7.5133109126        0.5725709071       -1.3295857854
 H        -9.2131363052        0.5556417895       -1.5978175386
 H        -6.7435715363        0.7219689206        1.4515080400
 H        -7.1696751260        2.3275185256        1.8334832446
 H        -6.5120060267        1.8231418677        0.2060964123
 H        -6.0492903188        5.7827853249       -5.1410969157
 H        -7.1065697384        7.1889759161       -4.5774703970
 H        -6.8569578551        6.6539410171       -6.3261672999
 H        -9.2458860817        7.0203983503       -3.9653671704
 H       -10.2391484863        5.6099879963       -4.1302610184
 H        -9.8308437877        6.7052600534       -5.4851248319
 H        -5.0719576684        0.8080166582      -10.0639374435
 H        -4.9307963718       -0.7979002613       -9.4343363636
 H        -4.4035460277        0.5930596495       -8.4991980039
 H        -7.9090143345       -1.1434077341       -9.4759163386
 H        -7.6197656633        0.3039750582      -10.3577189189
 H        -8.6984221699        0.3096020136       -8.8811893043
 Na      -10.2994377812        4.4102701864        2.0600367173
