117

 C        -5.2069728449       -1.2911103165       -6.7548665003
 C        -6.5969153614       -0.8361357012       -7.1943168579
 O        -7.5836304240       -0.9620694661       -6.4994777640
 C        -6.7014978029       -0.1121531727       -8.5943682860
 C        -6.7037268601        1.4050943377       -8.0315295193
 O        -5.6802996491        1.9961939549       -8.1552507484
 C        -7.9674556887        1.9870012989       -7.2472171622
 C        -7.6482376420        3.3728432257       -6.7661177053
 C        -8.4831892456        3.7854775100       -5.5579498967
 O        -9.3725485233        2.9953122586       -5.2368725393
 C        -8.3562362242        5.1699452858       -4.8973815687
 C        -7.3866028207        4.9981349126       -3.6177737312
 O        -6.3168525351        5.5951024111       -3.5627074433
 C        -8.1342671712        4.1261724977       -2.5713207919
 C        -7.4868614040        3.3454782948       -1.3806025949
 C        -8.6059378940        3.0341063079       -0.3487616901
 O        -9.3331803757        4.0133092995       -0.1117357665
 C        -8.6554241294        1.6106931729        0.2216352451
 C        -9.5638942438        1.2996505455        1.4629144717
 O       -10.0323264363        2.2233017801        2.1532810470
 C        -9.9369804765       -0.1394777495        1.7246903706
 C       -10.1219343459       -0.3661749275        3.2718171110
 C       -11.2207157325        0.5233089789        3.9249517403
 O       -12.3476407676        0.4762622984        3.4615835982
 C       -10.8616381802        1.4248240239        5.1423994835
 C       -11.3768950639        2.8524063587        4.7201368244
 O       -10.5502844098        3.7591258786        4.5510254661
 C       -12.8808194679        3.0888044014        4.6005901294
 C       -13.2770500687        4.6238731159        4.3735561940
 C       -13.5715118964        4.9445372762        2.8982008797
 O       -13.1297035592        4.2175856989        2.0319929364
 C       -14.4263524331        6.2114415414        2.4883601821
 C       -13.8149384092        7.4703529005        3.2941200743
 O       -14.0799843672        7.4190488584        4.4879928574
 C       -12.9238573177        8.5852626887        2.6781008874
 C       -11.6058939916        8.7312291926        3.5020175317
 C       -10.7677755578        7.4683902037        3.3752796850
 O       -11.3247131635        6.4687588370        2.9618615793
 C        -9.3303287831        7.3490329916        3.9703425916
 C        -8.3803866702        6.7333030170        2.8386336984
 O        -8.6753688120        5.6832562005        2.3589981011
 C        -7.1060648176        7.4861073837        2.4537700452
 C        -8.7634922790        8.6827179550        4.5134416894
 C        -9.5033579773        6.3891007382        5.2515595481
 C       -14.3325690944        6.2958735665        0.9294261373
 C       -15.8763978682        6.0255177696        2.8694872371
 C       -11.6926666296        0.7866383933        6.3128872248
 C        -9.3563255490        1.4214387063        5.4838131225
 C        -9.0047876282        0.7736861556       -1.0228433970
 C        -7.2481681986        1.3570178820        0.6876898131
 C        -7.5755460259        6.0891173822       -5.8393012027
 C        -9.7577636371        5.6119672972       -4.4082290060
 C        -5.5876753659       -0.3449514633       -9.5848061930
 C        -7.9947275479       -0.4052932315       -9.3230866252
 H        -4.3735341399       -0.5586829433       -6.9614538656
 H        -5.0905604405       -2.2883002721       -7.2272535391
 H        -5.3617289199       -1.6019898765       -5.6804775877
 H        -7.9825502410        1.4843662161       -6.3059422592
 H        -9.0290162193        1.9780848435       -7.6018033441
 H        -7.8713819710        4.0509273489       -7.6090734599
 H        -6.5531790356        3.5586378001       -6.6601696406
 H        -8.7659195499        3.4466404755       -3.2400869963
 H        -8.8064189506        4.8429362957       -2.1025806671
 H        -6.8239914887        3.9496749972       -0.8437098507
 H        -6.9870767170        2.4477220158       -1.7013726396
 H        -9.1549972937       -0.8394810553        1.3556874307
 H       -10.8274369965       -0.4833110297        1.1602830458
 H        -9.1259962004       -0.3135440204        3.7256720357
 H       -10.4530759608       -1.3486424003        3.2693250305
 H       -13.4039873982        2.7823990021        5.4992819018
 H       -13.1859667124        2.5283845173        3.7151299122
 H       -12.4997421869        5.2601459623        4.7613365615
 H       -14.1543753448        5.0775238699        4.9095598247
 H       -13.4532743721        9.5128308912        2.7519080896
 H       -12.6640046409        8.3566052114        1.5800813190
 H       -11.7165708751        8.9367002212        4.5756794254
 H       -11.0709321434        9.5279433974        2.8932914511
 H        -7.4199081938        8.3881334681        1.9123942564
 H        -6.4144737073        6.9219535824        1.7561487358
 H        -6.5787672663        7.8012960781        3.3634240008
 H        -7.7070654054        8.6343536652        4.7489671883
 H        -9.3114472942        9.1796005109        5.2847883924
 H        -8.7153136612        9.4411792665        3.7606098706
 H        -9.1247695593        6.8914864233        6.1431790051
 H        -8.9494573973        5.4705820133        5.0689965854
 H       -10.5933621412        6.2571610016        5.4407369273
 H       -15.0635355367        6.9595794746        0.4824066172
 H       -14.4400515028        5.2718849406        0.6373763556
 H       -13.3408880114        6.7257313171        0.8076438694
 H       -16.4428720426        6.9702900930        2.9094312363
 H       -15.9841286639        5.6137368343        3.8657961359
 H       -16.3005128361        5.2419835118        2.2247897871
 H       -12.6413001135        0.3402245259        5.9794838648
 H       -12.0248786177        1.5169789776        7.0653341435
 H       -11.1318014809        0.0606423975        6.9087754538
 H        -8.7300042650        1.6213736269        4.6109011790
 H        -9.0033777351        0.4679444700        5.8400871733
 H        -9.0551332986        2.1934041493        6.2432872645
 H        -8.9747578562       -0.2449073727       -0.7826184869
 H        -8.2479042624        0.8804812778       -1.8188056150
 H       -10.0565902703        0.9680509281       -1.2343608172
 H        -7.0374236534        0.2805568088        0.9403857632
 H        -7.0355106612        1.9177876529        1.5828186731
 H        -6.4691809929        1.7345398039        0.0000719375
 H        -6.5407900326        5.7725714629       -6.0877923030
 H        -7.3221572388        7.0539858352       -5.4033566713
 H        -8.1054827158        6.3804229187       -6.7882977341
 H        -9.6800726025        6.3394640896       -3.6063040920
 H       -10.2570909152        4.7500366661       -4.1123761054
 H       -10.2735805586        6.0914566076       -5.2550385886
 H        -5.8507815713        0.1558185663      -10.5223582687
 H        -5.5299766635       -1.3832574467       -9.8454987423
 H        -4.6314847373        0.0137920010       -9.2508826597
 H        -7.8514771152       -1.3938003025       -9.8474139608
 H        -8.1851003936        0.3603987929      -10.0821199455
 H        -8.8414338305       -0.3587049583       -8.6268357143
 Na      -10.6373451493        4.4247763634        2.0518785426
