117

 C        -4.9129999351       -1.1981622053       -6.8740259545
 C        -6.4330055602       -1.2823130147       -7.2353886692
 O        -7.2044880219       -1.9453329154       -6.6255055989
 C        -6.9792764869       -0.3990493438       -8.4034367102
 C        -6.6582501081        1.0479815749       -8.0631024730
 O        -5.5243981474        1.4631699377       -8.2215924409
 C        -7.7996383991        1.8545389525       -7.5323093715
 C        -7.3659149707        3.1696074791       -6.8638749313
 C        -8.2360638111        3.4530175562       -5.6289518993
 O        -8.9801658243        2.6317408149       -5.1015528338
 C        -8.4488402582        4.9767839252       -5.0846763955
 C        -8.0000960417        4.9864610314       -3.6000402581
 O        -6.8612125310        5.3145903926       -3.2545665655
 C        -8.8928630345        4.3502741842       -2.4318353891
 C        -7.8758454362        3.7595556194       -1.4195296842
 C        -8.5728256409        3.2101227603       -0.1877185170
 O        -9.0866827924        3.9488670141        0.6445366215
 C        -8.6023677353        1.6518553737       -0.0463012830
 C        -9.2847838332        1.2664284231        1.3092917606
 O        -9.5090750767        2.1306524661        2.1881403764
 C        -9.6293135863       -0.1786488780        1.6894820457
 C       -10.1036654733       -0.3182131544        3.1581193953
 C       -11.2557654771        0.7112943226        3.6155362193
 O       -12.2673691386        0.7120437932        2.9882216739
 C       -11.1763132719        1.5397398824        4.8889091094
 C       -11.8601775519        2.9167809505        4.6677500668
 O       -11.1685559094        3.9264032492        4.6742504517
 C       -13.3843444743        2.9405403108        4.4268366549
 C       -13.8235483795        4.3933510189        4.2138968980
 C       -13.6200114763        5.0037167868        2.7564727528
 O       -12.8329922731        4.4383914825        2.0164937721
 C       -14.2498424514        6.3660274184        2.3330891688
 C       -13.5918025537        7.4344997786        3.3523709015
 O       -13.7762409668        7.3509876633        4.5646557788
 C       -12.9140234944        8.7259709917        2.8390657514
 C       -11.4998192457        8.9307089810        3.4722365684
 C       -10.6632331144        7.6645945546        3.5346529171
 O       -11.1248281752        6.6246807836        3.1676977159
 C        -9.1665841299        7.6820408755        4.1498197751
 C        -8.1299001162        6.9290327296        3.2503368234
 O        -8.3179528181        5.8030634227        2.8444859214
 C        -6.9172540288        7.6792290799        2.6708541443
 C        -8.6261832194        9.0484816126        4.4642179939
 C        -9.2733395905        6.8000865574        5.4578706372
 C       -13.9990201486        6.7376033568        0.8107745301
 C       -15.7917457756        6.3665489554        2.6746386936
 C       -11.8933255341        0.7725121400        6.0210104663
 C        -9.7409659226        1.9698243911        5.3696957546
 C        -9.3683315631        0.9537383002       -1.2312690092
 C        -7.1872580661        1.2016224809        0.0273871778
 C        -7.6306475877        6.1018525523       -5.7305137987
 C        -9.9588050848        5.2751076943       -5.3310502450
 C        -6.1579731314       -0.8219414977       -9.6008797316
 C        -8.5050028043       -0.6341343583       -8.4966337805
 H        -4.7083171942       -0.1113490762       -6.5357027722
 H        -4.2986429452       -1.6293392902       -7.6842242029
 H        -4.7549463880       -1.8638750029       -5.9890344934
 H        -8.5789809972        1.2518078993       -6.9520064745
 H        -8.4648271349        2.1473723666       -8.3663716475
 H        -7.2610795490        3.9180056249       -7.6720823376
 H        -6.3361793546        2.9861005606       -6.5511062534
 H        -9.5211366550        3.6134619466       -2.7947919413
 H        -9.4973437115        5.1114439236       -1.9748097707
 H        -7.1803682165        4.5919284976       -1.2344896582
 H        -7.4070251993        2.9635943487       -1.9305304402
 H        -8.7907106189       -0.8736517129        1.5377551377
 H       -10.4352025505       -0.4974365094        1.0254854914
 H        -9.2123592899       -0.3512026922        3.7381300713
 H       -10.5266834344       -1.3350237322        3.3010036805
 H       -14.0384500164        2.6089545498        5.2564216116
 H       -13.6034058363        2.3107601273        3.5546380230
 H       -13.1920102697        5.0278236647        4.8055946843
 H       -14.7761156442        4.5717026864        4.5499664547
 H       -13.6291538752        9.5554305069        2.9925385580
 H       -12.7852499053        8.6367135689        1.8094937718
 H       -11.6027288217        9.3260945578        4.4880038824
 H       -10.9179837786        9.6725253383        2.9332006938
 H        -7.1326804617        8.6788010920        2.3115256426
 H        -6.6832101241        7.1963257899        1.7211142571
 H        -6.1234876872        7.7500518861        3.4193724024
 H        -7.6935562627        8.8918209653        4.9646103350
 H        -9.1489386987        9.5893339261        5.2617351214
 H        -8.4450829689        9.7534001546        3.6883251495
 H        -8.4940176918        6.0444923939        5.3304505871
 H       -10.3037376436        6.4099582989        5.4964678453
 H        -9.0787086918        7.3569300980        6.3758483678
 H       -14.9005325134        7.1549550560        0.4275448438
 H       -13.7461763594        5.7862274729        0.4062318946
 H       -13.0578225146        7.2305260357        0.7512880614
 H       -16.3389093908        7.2107055217        2.3442233539
 H       -15.8839508534        6.2360548164        3.7360386257
 H       -16.3494064963        5.5601064203        2.0949096188
 H       -12.8104621384        0.3031020625        5.6910643985
 H       -12.2460356563        1.3690309259        6.8554076018
 H       -11.2990107194       -0.0687502831        6.3739004741
 H        -9.1360732749        2.3219950688        4.5183629390
 H        -9.2025984255        1.1036763694        5.8616939795
 H        -9.8109040260        2.7039462959        6.0933962514
 H        -9.1878751466       -0.1520981208       -1.1834477166
 H        -9.0126195178        1.3803556673       -2.1650547839
 H       -10.4549501695        1.2196831737       -1.1603670673
 H        -7.1744850059        0.1490291852       -0.2135763567
 H        -6.8217700953        1.4044298445        1.0868576680
 H        -6.4549304307        1.6913812977       -0.5963899257
 H        -6.5756016981        5.8352547945       -5.8596941532
 H        -7.6682728447        7.0725348496       -5.3006829859
 H        -7.9326279380        6.2667837430       -6.7334129168
 H       -10.2380683744        6.2019946705       -4.8878227397
 H       -10.5600750618        4.4493883397       -4.9456186769
 H       -10.0886169569        5.2559831441       -6.3615498606
 H        -6.4499912876       -0.2163877689      -10.4190107463
 H        -6.1065412269       -1.8951321232       -9.8535848035
 H        -5.1805726835       -0.4596914313       -9.3045352708
 H        -8.8075438524       -1.6170547412       -8.8346258898
 H        -8.9324372859        0.1532937032       -9.1350710700
 H        -8.8787104598       -0.6223516214       -7.4673482641
 Na      -10.3304919101        4.4819809571        2.5870797720
