117

 C        -4.6263374417       -1.8995566846       -7.4333767675
 C        -6.1445243177       -1.8467371015       -7.2811067494
 O        -6.6925988240       -2.5532064284       -6.4784448553
 C        -7.0144785932       -0.8784710423       -8.1870113618
 C        -6.8890554444        0.6372846884       -7.8320822220
 O        -5.8077509497        1.1669241293       -7.8290037914
 C        -8.1645212409        1.3322479878       -7.2644631195
 C        -7.9352690950        2.8399225060       -7.0704474731
 C        -8.2335442260        3.2965554660       -5.5773593029
 O        -8.6842209746        2.4418149257       -4.8209360717
 C        -8.4339296962        4.8073408526       -5.2452914080
 C        -8.1625885655        5.1435625804       -3.7365405906
 O        -7.1400626345        5.7337081039       -3.3997254843
 C        -9.1081755710        4.6188669432       -2.6977541857
 C        -8.1920097161        4.0057639226       -1.5880166627
 C        -9.0244694756        3.3955652247       -0.3941910357
 O        -9.6754656796        4.1376363098        0.3020413584
 C        -8.8385178267        1.9108412695       -0.0502821264
 C        -9.2751111768        1.5286644406        1.4304313776
 O        -9.4481077617        2.4443382699        2.2495879192
 C        -9.5062523628        0.1149312944        1.8522725468
 C        -9.8823247013        0.0435798151        3.3347717819
 C       -11.2799516875        0.7392284368        3.6041757208
 O       -12.0645128924        0.7872435996        2.7019102457
 C       -11.6494621399        1.2851116027        4.9858007413
 C       -12.2053428766        2.7417085028        4.6086219667
 O       -11.4455430790        3.6486589513        4.6047456478
 C       -13.6657223138        2.8816726726        4.1816800410
 C       -14.0723478329        4.3385815252        3.8974324858
 C       -13.3735088068        5.0671349391        2.7664732437
 O       -12.3820662089        4.7060934806        2.1789510715
 C       -14.0223185486        6.4688273722        2.2817071027
 C       -13.3898882996        7.4968207298        3.2858709746
 O       -13.4439061925        7.1931319391        4.4714362701
 C       -12.5945395875        8.7525886850        2.8253444134
 C       -11.2851491801        9.0927249868        3.6667979102
 C       -10.2184244049        8.0153384192        3.4502133875
 O       -10.3402651618        7.2791926350        2.5049276062
 C        -8.9702216271        7.9155830259        4.4715221483
 C        -7.8104676606        7.2484322685        3.5632486203
 O        -7.9041027611        6.0463348791        3.3661830413
 C        -6.6860056034        8.0485593638        2.9487858585
 C        -8.5976861962        9.2449605594        5.0366296319
 C        -9.3033512822        6.8775181242        5.5774410230
 C       -13.7121956025        6.7425720494        0.7532144181
 C       -15.5480180510        6.5941640950        2.5161242182
 C       -12.7370923540        0.5031599308        5.6608320241
 C       -10.5207487987        1.5683705004        5.9764393097
 C        -9.6498282851        1.0233635503       -1.0649309820
 C        -7.3784237868        1.4926044455       -0.1493212096
 C        -7.6403546219        5.7553337856       -6.1537067971
 C        -9.9088858334        5.1537753372       -5.5477278029
 C        -6.4256717831       -0.8880252549       -9.6931581816
 C        -8.4689595408       -1.3672080401       -8.0283132750
 H        -4.2649481055       -0.8863260355       -7.5767242703
 H        -4.4592529131       -2.4129724567       -8.3217767705
 H        -4.2560252321       -2.3357030514       -6.5560626124
 H        -8.4368099451        0.9753222759       -6.2531292950
 H        -9.0413983216        1.0969378322       -7.7844335826
 H        -8.4553776564        3.4137959910       -7.8211609494
 H        -6.8427786531        3.0013304159       -7.1850729506
 H        -9.9020442134        3.9712828503       -3.0875174769
 H        -9.6679159936        5.5121916553       -2.1728067310
 H        -7.4326670643        4.7476583454       -1.2356262144
 H        -7.5613450121        3.2337822874       -2.0285196454
 H        -8.5755398615       -0.4212320536        1.6268617340
 H       -10.3692777010       -0.2925249998        1.2912154524
 H        -9.0333598007        0.3691516573        3.9383511104
 H       -10.0542766928       -1.0029674184        3.7339432421
 H       -14.3133541557        2.4380899836        4.9430667065
 H       -13.8962746474        2.2128104315        3.3453646368
 H       -13.8890546627        4.9900802794        4.8483558782
 H       -15.1070773065        4.3290676526        3.4771899062
 H       -13.2345429619        9.6913357129        2.7300513355
 H       -12.2912904956        8.4963483893        1.8450043760
 H       -11.5083337360        9.3961840041        4.7268790718
 H       -10.8662114581       10.0436049666        3.3985304950
 H        -7.0946789915        8.8147295044        2.3252706258
 H        -6.0560555581        7.3224324371        2.4356969038
 H        -6.0558738500        8.5120738132        3.6801649884
 H        -7.6201557721        9.1686630423        5.5242793984
 H        -9.3996063526        9.6255174086        5.7147528229
 H        -8.4126205204        9.9997424030        4.2519748716
 H        -9.1697359997        7.3054815783        6.5625449005
 H        -8.5387326743        6.1001287746        5.4977535317
 H       -10.2884378713        6.4729501599        5.4506098629
 H       -14.5825382263        7.2155334659        0.3015956473
 H       -13.5512099134        5.7614579058        0.3152941032
 H       -12.8487845768        7.3935590489        0.7019869190
 H       -15.8440797371        7.5940489499        2.4893323800
 H       -15.9057944793        6.2251909745        3.4477802585
 H       -16.0610967086        5.9079852674        1.8055875710
 H       -13.5393295006        0.2133004596        5.0079643535
 H       -13.1115939610        1.0538531906        6.5152464880
 H       -12.4002763953       -0.4014438579        6.1544358944
 H        -9.8619339839        2.3024595701        5.5110372018
 H       -10.0156115299        0.5794067413        6.1657383014
 H       -10.9482667088        1.9564049984        6.8357435355
 H        -9.3786398418       -0.0365475280       -0.7930120567
 H        -9.3661336537        1.1614605948       -2.1107756114
 H       -10.7512627724        1.1988601114       -0.9630477804
 H        -7.2752132870        0.4756562240        0.1212239138
 H        -6.7914699879        2.0432192429        0.6342515617
 H        -7.0785695115        1.6318838796       -1.1493678860
 H        -6.5308921520        5.5876091545       -6.0801949674
 H        -7.8395280040        6.7954916943       -5.9287453588
 H        -7.9481119315        5.5627976522       -7.1604140481
 H       -10.0212337574        6.2483756780       -5.5695647832
 H       -10.6590288266        4.6455364577       -4.8730211098
 H       -10.0096798625        4.9291647928       -6.5969027491
 H        -7.2220949216       -0.5199805088      -10.3256061737
 H        -6.1911728564       -1.9351105164       -9.9749282006
 H        -5.5646688955       -0.2090079418       -9.7176192454
 H        -8.5387246694       -2.3837263143       -8.3376272621
 H        -9.1160168322       -0.7815442122       -8.6978117930
 H        -8.8374001663       -1.1386593525       -7.0434021331
 Na       -9.8782383051        4.8136972096        2.4900898344
