117

 C        -5.0165370843       -1.2222879280       -6.8136815465
 C        -6.5036247576       -1.2395756382       -7.1954907522
 O        -7.3159552121       -1.7945597365       -6.4636494690
 C        -6.9005333033       -0.3689162607       -8.4576530304
 C        -6.6018225951        1.2018374624       -8.0490346910
 O        -5.5491366458        1.7590409472       -8.2660458667
 C        -7.7780127553        2.0689038698       -7.4864784728
 C        -7.3492386404        3.3337568673       -6.7061009012
 C        -8.3734671114        3.6504673214       -5.5796285153
 O        -8.9763165487        2.7215764902       -5.0615082300
 C        -8.5300827700        5.0831927568       -5.0193680613
 C        -7.9169711920        4.9090137035       -3.5166649410
 O        -6.8097594483        5.3525891200       -3.3196232720
 C        -8.6708502992        4.2259537760       -2.4315576697
 C        -7.6643099147        3.7430097968       -1.3576713769
 C        -8.4349091283        3.2279789196       -0.1282278003
 O        -9.1287458358        3.9887029385        0.5139387251
 C        -8.5531389524        1.6667062335        0.0895959874
 C        -9.4001088085        1.2577899819        1.3624050993
 O        -9.7284063785        2.1074471772        2.1318102172
 C        -9.9347337951       -0.1509649771        1.6959015176
 C        -9.9680815663       -0.2293857336        3.2304030882
 C       -11.1590225384        0.6099615589        3.7165582833
 O       -12.2208628149        0.6488619230        3.0840526341
 C       -11.0157737790        1.5043133591        4.9887695308
 C       -11.7457992704        2.9726812200        4.6575483926
 O       -10.9947567305        3.9161834658        4.4011082057
 C       -13.2373374361        3.0675273631        4.5356155299
 C       -13.6848697893        4.5233671959        4.2778972827
 C       -13.4811348824        5.0322633482        2.8705230259
 O       -12.9631235200        4.4044340340        1.9606057575
 C       -14.2148465530        6.3771491785        2.4171801541
 C       -13.6104779412        7.4929388197        3.3320504945
 O       -13.7827376234        7.3909249463        4.5217904753
 C       -12.7682951869        8.6971330061        2.7913242014
 C       -11.5203706592        8.9071127729        3.5977857700
 C       -10.7153700951        7.5915535585        3.5338353178
 O       -11.2480218312        6.5424024926        3.1671996938
 C        -9.2681561166        7.5275017235        4.1193903568
 C        -8.3062255653        6.8076607986        3.0563747551
 O        -8.5847473350        5.7004935590        2.6831489077
 C        -7.0465170134        7.5326104402        2.5933117979
 C        -8.7774775530        8.9185290643        4.4752572185
 C        -9.2956101458        6.6965074171        5.3502932198
 C       -14.0844670353        6.5195180252        0.8055909114
 C       -15.7246092273        6.1162587788        2.7327366338
 C       -11.7379090605        0.7566898453        6.0812022693
 C        -9.5686311892        1.7886452320        5.4726592272
 C        -9.1422544917        1.0780276436       -1.2024372008
 C        -7.1904038062        0.9897760666        0.2874518409
 C        -7.5874260492        6.0456402186       -5.7146125170
 C       -10.0784660515        5.5723693278       -5.0404227711
 C        -6.0134700164       -0.7672005541       -9.6765532179
 C        -8.3888179466       -0.6371954067       -8.9555337072
 H        -4.6420447158       -0.2519320642       -6.8438460772
 H        -4.5084297020       -1.9956831236       -7.3603939387
 H        -4.9958969912       -1.6081442986       -5.8042409502
 H        -8.3636585452        1.5535727316       -6.7796101012
 H        -8.5593922582        2.3114022074       -8.2119476930
 H        -7.3469426320        4.1735919852       -7.4064164167
 H        -6.2893866800        3.2475631483       -6.3936200888
 H        -9.2196080930        3.3311151265       -2.9617535000
 H        -9.3980395959        4.9728858102       -2.0258169708
 H        -7.0823661309        4.6202776002       -1.1472232534
 H        -7.0727872853        2.9431965119       -1.8661140317
 H        -9.3422811000       -0.9280454357        1.1905022280
 H       -10.9763889613       -0.2097987366        1.3138645511
 H        -8.9409349170        0.0977983464        3.5412511559
 H       -10.2031227106       -1.1818877379        3.6812017562
 H       -13.7249692006        2.8060725660        5.4656239326
 H       -13.5694048963        2.4043906240        3.7243435132
 H       -13.2504858648        5.3173029756        4.9298566512
 H       -14.8155506941        4.7366311699        4.4739707014
 H       -13.4066321710        9.5638090107        2.9050421610
 H       -12.5505304091        8.5503768720        1.6670762636
 H       -11.7787661595        9.3038565638        4.6074579594
 H       -10.8763916840        9.6527114665        3.0301008971
 H        -7.3928242504        8.4094501988        2.0112588711
 H        -6.4928585753        7.0043002551        1.8051985119
 H        -6.5095937390        7.9290259797        3.4570402506
 H        -7.7347523888        8.9337863903        4.8967112132
 H        -9.3903873053        9.3974946172        5.2390939991
 H        -8.7099191497        9.6811164209        3.6764056284
 H        -8.2732861537        6.3842429897        5.5348544826
 H       -10.0374567718        5.9016220191        5.3149988704
 H        -9.5440326576        7.4208338773        6.1423361187
 H       -14.5223157539        7.5199499156        0.6424840373
 H       -14.6802660563        5.7095312364        0.3435863397
 H       -13.0096859779        6.4176487949        0.5897366676
 H       -16.3318522813        6.6154575134        1.9416931890
 H       -16.0332653438        6.4942293002        3.7106551559
 H       -16.0174741536        5.1141731096        2.5862703138
 H       -12.8304997256        0.6798432005        5.9987832791
 H       -11.6457922715        1.2282433011        7.0546439893
 H       -11.3992474593       -0.2736071718        6.1585315455
 H        -8.8693267778        2.1010899586        4.6965695913
 H        -9.1828826652        0.8886597557        5.9143728340
 H        -9.5546866056        2.5861097777        6.3326368341
 H        -9.0631237461        0.0557199226       -1.0465536638
 H        -8.5073154371        1.3066409695       -2.0631565561
 H       -10.1610524026        1.3377973897       -1.3207064881
 H        -7.3665269873       -0.0854120808        0.4790663264
 H        -6.5583483936        1.4940873265        0.9483546161
 H        -6.6196697931        1.0381544335       -0.6621620848
 H        -6.5528577170        5.6924309206       -5.6389450421
 H        -7.5952553557        7.1018008351       -5.3466169879
 H        -7.7695861581        6.3103433506       -6.8210647443
 H       -10.1608463608        6.5759380688       -4.5880014664
 H       -10.7151489138        4.8621578840       -4.5845999364
 H       -10.3932832461        5.4461672313       -6.1033788599
 H        -6.3856323048       -0.3645991807      -10.6372505588
 H        -6.0608709542       -1.8377935392       -9.7133453666
 H        -4.9727638011       -0.5010201929       -9.5534314358
 H        -8.3957793964       -1.6737390680       -9.3416823031
 H        -8.6440842761        0.1212976211       -9.6950835299
 H        -9.1013337152       -0.7287825311       -8.1322200626
 Na      -10.5967948574        4.3571994359        2.1985117308
