117

 C        -4.7779029667       -1.3255977743       -7.0024866037
 C        -6.3237211624       -1.4996793875       -7.2653853957
 O        -6.9423190299       -2.2380023592       -6.5598847254
 C        -7.0331019800       -0.6823829555       -8.3577789982
 C        -6.7151440358        0.8348017029       -7.9291242903
 O        -5.5597721591        1.2517260127       -7.9909785941
 C        -7.8911902944        1.7558502123       -7.5237399543
 C        -7.4125016735        3.0289391402       -6.9438513568
 C        -8.2049071782        3.4221847020       -5.7143112171
 O        -8.6035053323        2.5455167712       -4.9683632406
 C        -8.5079383847        4.9829700046       -5.2811434346
 C        -8.0179181681        5.0393931676       -3.8196585730
 O        -6.9716651884        5.5738141503       -3.4665719793
 C        -8.8813830508        4.4156837403       -2.6844121946
 C        -8.0599009538        3.5826644538       -1.6187431283
 C        -8.8316083616        3.3002936202       -0.3401557434
 O        -9.4275704471        4.1474544059        0.3217504258
 C        -8.8140241686        1.7796575121        0.1677889659
 C        -9.2762106224        1.3464778508        1.6182621793
 O        -9.4441784981        2.1931731159        2.5316184592
 C        -9.5809340190       -0.1350268326        1.7543777878
 C       -10.2257697112       -0.4062779225        3.1990888470
 C       -11.3173365070        0.6345031175        3.4293803409
 O       -12.1811767114        0.7603669875        2.6135346856
 C       -11.3019268505        1.5215638099        4.7998793654
 C       -11.9861801486        2.9551082793        4.6043729108
 O       -11.4074761162        3.9552741210        4.9259571523
 C       -13.3927374543        2.8839212766        4.1134736211
 C       -14.1912013835        4.1977954367        3.9028338546
 C       -13.5638675535        5.0217366296        2.7415416029
 O       -12.4793085231        4.6592327547        2.3045671131
 C       -14.1174360130        6.4132369317        2.3753080210
 C       -13.4586728915        7.5002636362        3.3747657698
 O       -13.5799080608        7.3711723757        4.5850422739
 C       -12.7618803048        8.7093694628        2.8253156794
 C       -11.4698264694        8.9172936440        3.6728162652
 C       -10.4859959825        7.7506179356        3.5027403591
 O       -10.8239093202        6.8520480553        2.7851948116
 C        -9.1179160383        7.7862327360        4.2377866165
 C        -8.0166788897        7.1170269170        3.2945772157
 O        -8.1198208277        5.9268032783        3.0648757199
 C        -6.8124471936        7.9878719373        2.7923418801
 C        -8.7804845176        9.2628076447        4.5562391718
 C        -9.3163232734        6.9221147621        5.6145251790
 C       -13.7889333797        6.7453925570        0.8713601281
 C       -15.6102632819        6.5028711002        2.6273005230
 C       -12.1273320266        0.6111127298        5.7822108998
 C        -9.8754226780        1.7721076732        5.4500622033
 C        -9.6793712721        1.0272851266       -0.8350581670
 C        -7.3550984170        1.2869531762        0.1858728597
 C        -7.7381528039        5.9754139244       -6.1758348986
 C       -10.0126036279        5.4391634669       -5.4094135827
 C        -6.4476260271       -0.9268305900       -9.7419787105
 C        -8.5455737801       -1.0289978814       -8.3582355922
 H        -4.5514913053       -0.3385117815       -6.6398732221
 H        -4.2851791685       -1.5498918780       -7.9263890555
 H        -4.5396915236       -1.9888956204       -6.2434209238
 H        -8.6631754687        1.2906453917       -6.9309004225
 H        -8.4671857730        1.9688317605       -8.3678092727
 H        -7.2904505429        3.7565306759       -7.7284689789
 H        -6.3883350741        2.7032635013       -6.6502365560
 H        -9.7855859372        3.8469227773       -2.9669143777
 H        -9.2180453381        5.4282903988       -2.1722619612
 H        -7.0781068641        4.0348393543       -1.3781736866
 H        -7.8766753989        2.6106013670       -2.0741631424
 H        -8.6596410030       -0.7310880450        1.6613734029
 H       -10.3629393949       -0.4809349560        1.0395792625
 H        -9.5270751325       -0.4802786748        3.9882532877
 H       -10.5702229449       -1.4559610565        3.1634988137
 H       -13.9459494042        2.2186991341        4.7795897590
 H       -13.3657637623        2.3069885682        3.1677268045
 H       -14.1524780126        4.8675876258        4.8232876450
 H       -15.2488549937        4.0295553449        3.6155470997
 H       -13.4842186196        9.5951267080        2.7743855854
 H       -12.4311097983        8.5700088060        1.8184362593
 H       -11.6485331501        9.1186043154        4.7986651354
 H       -11.0512050937        9.8969997082        3.4029142332
 H        -7.2000436181        8.8453393452        2.2082297993
 H        -6.1747927237        7.4486987139        2.0978928794
 H        -6.3036286289        8.3770721470        3.6848579005
 H        -7.8620119082        9.5198914631        5.0769535188
 H        -9.4787021302        9.7204209401        5.2653854785
 H        -8.8669808924        9.7943744272        3.5731327982
 H        -8.4292402713        6.3297240413        5.8032980128
 H       -10.2198390126        6.3398592452        5.4584800574
 H        -9.5653231302        7.5819304446        6.4007521794
 H       -13.6779750419        7.8283598109        0.8671518413
 H       -14.7008998874        6.5265093869        0.2793873223
 H       -13.0110997733        6.0659850422        0.5659707482
 H       -15.9414193265        7.5212051718        2.4387318155
 H       -15.7928466279        6.3530247517        3.6975916891
 H       -16.2671931056        5.8253634707        2.0475438386
 H       -13.1869871862        0.5188922538        5.5762742950
 H       -12.1120834508        1.0961230793        6.7661227492
 H       -11.7939227635       -0.4051882693        5.9881265122
 H        -9.3212628156        2.5038148848        4.8215980807
 H        -9.2747324826        0.8192953945        5.5506778291
 H       -10.0192252423        2.1432748222        6.4488429832
 H        -9.6112669795       -0.0344150994       -0.6276413987
 H        -9.4817472498        1.2339053209       -1.8325419705
 H       -10.6455227927        1.4071883539       -0.6810457553
 H        -7.2687602234        0.3004237310        0.6022221130
 H        -6.7133917899        1.9527119991        0.8405685638
 H        -7.0192338535        1.1929993060       -0.8376972355
 H        -6.5962889891        5.8986481284       -6.2078088445
 H        -7.9000942922        6.9665262326       -5.6373122991
 H        -7.9469047081        5.9905484539       -7.2439923020
 H       -10.0825257285        6.3446320590       -4.7944418566
 H       -10.7445068628        4.6877448957       -4.9402705275
 H       -10.2001710088        5.7813237507       -6.4345423761
 H        -7.0220747776       -0.3853064620      -10.4940434363
 H        -6.4661551507       -2.0100721522       -9.9109026733
 H        -5.4021453757       -0.5820787427       -9.7262180401
 H        -8.6930809453       -2.0528267643       -8.6265198059
 H        -9.0171358333       -0.5282677158       -9.2191422460
 H        -8.9886947149       -0.8264152104       -7.3787844519
 Na       -9.9984937277        4.4297901082        2.9309457315
