117

 C        -4.6175533027       -1.9362583028       -7.8396733933
 C        -6.0347749481       -1.9834913555       -7.2264847080
 O        -6.2892883996       -2.5044076571       -6.1865099483
 C        -7.1225291502       -1.1665896808       -8.1254641870
 C        -7.0743339185        0.2581515407       -7.4726487595
 O        -6.0480848851        0.9213517823       -7.5707091760
 C        -8.1632809053        0.8269964883       -6.5752569837
 C        -8.2375998285        2.3456450011       -6.6009726488
 C        -8.5039150679        3.0714293911       -5.3410678133
 O        -8.7600981455        2.4118970693       -4.3469263489
 C        -8.4780285001        4.6544576465       -5.4078201268
 C        -8.3271144302        5.3329313211       -4.0662924622
 O        -7.4882880066        6.2249520120       -3.9822552752
 C        -9.1180659568        4.9034129593       -2.8037929025
 C        -8.3279839550        4.0947957868       -1.7663478276
 C        -9.0406726351        3.7339202799       -0.4835536592
 O        -9.5265200825        4.6833052642        0.1596173254
 C        -8.7313878504        2.2310477421        0.0474885534
 C        -9.1013365257        1.9968337122        1.5798108509
 O        -8.9985087610        2.8345780211        2.4700820706
 C        -9.3357335944        0.5519752616        2.0834544318
 C        -9.7965138682        0.4984210867        3.5631934240
 C       -11.3132567847        0.5178038929        3.6911274855
 O       -12.0693757881        0.0450041268        2.9072200896
 C       -11.9189733697        1.1770839516        5.0308123000
 C       -12.1571591066        2.7270923306        4.4076630607
 O       -11.1468820547        3.4133663546        4.3354757642
 C       -13.5042344801        3.3081729872        4.1420464936
 C       -13.4084666595        4.8283937184        4.0877523854
 C       -13.1446815234        5.3574007443        2.5999200818
 O       -12.5063960658        4.6964973493        1.8053735693
 C       -13.6664029946        6.7872584300        2.1116254894
 C       -13.0847445859        7.8937618962        3.1087382899
 O       -13.1218504327        7.5650114813        4.2782389245
 C       -12.4735558699        9.2257422697        2.7191103276
 C       -11.0554388808        9.3531049572        3.4581350870
 C       -10.3294964987        8.0062242620        3.4225607668
 O       -10.7265762234        7.1845214765        2.6400560509
 C        -9.1228973552        7.5660635791        4.4185303813
 C        -7.9727805591        6.8714181183        3.6381395766
 O        -8.1830657603        5.9293018465        2.9176135933
 C        -6.5507588210        7.3251807897        3.7201880824
 C        -8.5595895798        8.8104488776        5.1799983443
 C        -9.6067763281        6.4894509118        5.3928251095
 C       -13.2502319858        7.0323297935        0.6217960398
 C       -15.1996499207        6.8643147832        2.2338377361
 C       -13.1659378572        0.4194008793        5.4638379650
 C       -11.0260679588        1.3487494627        6.3027054930
 C        -9.6458954138        1.2721138113       -0.7689159981
 C        -7.2097316507        1.9951781599       -0.1539538433
 C        -7.4299469491        5.1875031886       -6.4209158092
 C       -10.0174066351        4.8701006637       -5.8398908464
 C        -6.8398822403       -1.0168132139       -9.7165000740
 C        -8.4114729721       -2.0204377790       -8.1018868931
 H        -4.3641700750       -0.9308143889       -7.6952471141
 H        -4.6579097986       -2.1324300390       -8.9021289682
 H        -3.9852602820       -2.6119016629       -7.3858727165
 H        -7.8780341072        0.5305939646       -5.6131535375
 H        -9.0994741657        0.3289090946       -6.8863728629
 H        -9.0790291970        2.6614339156       -7.2642293284
 H        -7.3284821171        2.6189135909       -7.1203218043
 H       -10.1002967168        4.4415901138       -3.0323475229
 H        -9.4351179509        5.9090682311       -2.4047702424
 H        -7.3854324692        4.6409922337       -1.5959704767
 H        -8.0095222463        3.1593418661       -2.2743520770
 H        -8.3663163272       -0.0074712614        2.0605274277
 H       -10.0733402613        0.0402576775        1.4269567499
 H        -9.2267979978        1.2157618726        4.1534098150
 H        -9.6285892350       -0.4818162755        3.9208669909
 H       -14.2246366053        2.9236780795        4.8849473226
 H       -13.9281648221        2.7804964269        3.2682866860
 H       -12.6043483884        5.1551412210        4.6978643036
 H       -14.4091800882        5.1749322694        4.4102928820
 H       -13.1009984251       10.0837566847        2.9533318190
 H       -12.3333204550        9.1564143215        1.6018494594
 H       -11.1984320231        9.8611909556        4.4367418696
 H       -10.3620589780       10.0986182040        2.9115262117
 H        -6.4188367209        8.3076522891        3.2496752638
 H        -6.0460168320        6.5554849457        3.2183584445
 H        -6.0291784735        7.3318785884        4.6605287997
 H        -7.6956706311        8.4283567173        5.7800990680
 H        -9.2992070789        9.3173710108        5.7899718106
 H        -8.2300675016        9.5194529662        4.3691527565
 H       -10.5388356811        6.0313011976        5.0757242043
 H        -9.6722788730        6.8878382684        6.3939851797
 H        -8.9432352337        5.6506137305        5.3651662931
 H       -13.8113467137        7.8551337471        0.1168936757
 H       -13.4537175934        6.0563604999        0.0793565789
 H       -12.1804721989        7.2757429581        0.5532724691
 H       -15.5347931101        7.9172881121        2.1054549580
 H       -15.4920092222        6.4874425721        3.2194999550
 H       -15.7394978095        6.4038563103        1.4818911274
 H       -13.7725347575        0.1194735061        4.6170907278
 H       -13.7826298549        1.0389463421        6.1119566797
 H       -12.8538145784       -0.4998309193        5.9385120800
 H       -10.1182077555        1.8475381935        5.9735467273
 H       -10.9801717863        0.3862408410        6.7630053737
 H       -11.6328503654        2.0024456757        6.9825652850
 H        -9.2202111171        0.2538769973       -0.8369330091
 H        -9.7160949598        1.5868545380       -1.8063373621
 H       -10.5991815030        1.0561641610       -0.3387684618
 H        -7.0084674452        0.9815734135        0.1521631752
 H        -6.6983984490        2.7975218911        0.3321210042
 H        -6.9268366065        2.0704552559       -1.2020017342
 H        -6.4002185754        4.9099388128       -6.0005889167
 H        -7.5936757908        6.3188284511       -6.4259300052
 H        -7.6765919203        4.8877931350       -7.4433081289
 H       -10.2273156475        5.8544565483       -6.2231004997
 H       -10.6799525746        4.7289993987       -4.9535474208
 H       -10.3608165212        3.9770093114       -6.4262738768
 H        -7.8393934248       -0.7919741814      -10.1601260346
 H        -6.6060251207       -2.0275978345       -9.9980044705
 H        -6.1005806081       -0.2518982961       -9.9830285402
 H        -8.2377423949       -2.9682821523       -8.5902732482
 H        -9.2559326215       -1.5170685438       -8.5613734284
 H        -8.6971709653       -2.3021180331       -7.1016098055
 Na      -10.2828845061        4.8445071171        2.4189270623
