117

 C        -4.5942850579       -2.0639667726       -7.9113543029
 C        -5.9452371104       -2.2087256398       -7.2794989587
 O        -6.1552417082       -2.7756724292       -6.2580962755
 C        -7.0730670155       -1.3449000058       -7.9695193081
 C        -7.1062628376        0.0995283318       -7.4432712778
 O        -6.2944244548        0.9119927902       -7.8516104532
 C        -8.0902273636        0.6319033830       -6.3501335904
 C        -8.1739536000        2.1596813620       -6.4372036481
 C        -8.6663929595        2.9066496559       -5.2490267469
 O        -8.8367348137        2.4016356490       -4.1495120749
 C        -8.7680091475        4.4589212084       -5.5164197058
 C        -8.4825854659        5.3273754328       -4.0751886611
 O        -7.7173509671        6.2677905247       -4.1283020883
 C        -9.1622642528        5.0846435752       -2.6923401926
 C        -8.2462352391        4.1449801451       -1.7785123593
 C        -8.8616428644        3.8264560364       -0.4401880255
 O        -9.5552265442        4.6545032230        0.1868106276
 C        -8.6472317632        2.3335273689        0.1572779452
 C        -8.9134502648        2.2048114343        1.6489660833
 O        -8.5836221217        3.0792170965        2.4506218795
 C        -9.4675658613        0.8252527611        2.1127671450
 C        -9.7879681446        0.7434725008        3.6304222418
 C       -11.3281362330        0.4636830786        3.7971677550
 O       -11.8998937645       -0.1555482294        2.9712606784
 C       -12.0314916141        1.3847960252        4.9208847933
 C       -12.0468917141        2.8191544099        4.3150804058
 O       -10.9714366419        3.3637127613        4.0236889926
 C       -13.3538016019        3.4494339508        3.9761235587
 C       -13.3604554450        4.9515882955        3.9375873839
 C       -13.0683644318        5.5305826080        2.5363795571
 O       -12.5827360428        4.7823944547        1.7166073433
 C       -13.5510809969        6.9826660658        2.0672346082
 C       -12.9316475534        8.0346584455        3.0878661810
 O       -13.3153585769        7.9568190560        4.2396662471
 C       -12.1502522423        9.2793690009        2.6822477724
 C       -10.8005352072        9.1975696464        3.3965824289
 C       -10.2784963833        7.7808560272        3.4114556183
 O       -10.8662760790        6.8816688474        2.8177444268
 C        -9.2028821716        7.4068928386        4.4712872539
 C        -8.0289543354        6.7070788470        3.5866795067
 O        -8.2994747503        6.0758099795        2.6344840158
 C        -6.5237786683        6.8388927636        4.0476504100
 C        -8.5316781806        8.6627795063        5.1827842958
 C        -9.8788644970        6.3846076484        5.4218474922
 C       -13.2504296241        7.2279603417        0.5686185260
 C       -15.1023839782        7.0236509469        2.1941917094
 C       -13.4555051616        0.8977279014        5.2090233932
 C       -11.1595808632        1.3380481647        6.1700516187
 C        -9.4875888364        1.4413891060       -0.7027085712
 C        -7.0767722934        2.0103370980        0.0701682145
 C        -7.7076555247        5.0324757124       -6.4680774891
 C       -10.2230913043        4.9832156681       -5.9494148134
 C        -6.8472997929       -1.2312454914       -9.5573584219
 C        -8.4093988294       -1.9595917397       -7.5755519479
 H        -4.4219339880       -1.0041684673       -8.1625909367
 H        -4.4762913298       -2.8230664555       -8.7632505960
 H        -3.8651771647       -2.4474231039       -7.1618670850
 H        -7.6479127611        0.3154429777       -5.3917061585
 H        -9.1307519601        0.2902074884       -6.4243424179
 H        -8.7733243164        2.4016820797       -7.3627425601
 H        -7.2068513251        2.6117310931       -6.6411923391
 H       -10.1799129372        4.5762721359       -2.8480024443
 H        -9.3575277250        6.0623821926       -2.2414207101
 H        -7.2653217347        4.6068729296       -1.6395748780
 H        -8.0695715470        3.2007521949       -2.2982193857
 H        -8.7161068468        0.0708710145        1.8340379073
 H       -10.3483762664        0.4861880407        1.6110404836
 H        -9.5097193323        1.6810934947        4.2140576060
 H        -9.3196938861       -0.1637861781        4.0574766982
 H       -13.9611451027        3.1405378524        4.8284030498
 H       -13.8992873681        2.9977415889        3.1565846820
 H       -12.5875106193        5.3139004283        4.6914498691
 H       -14.3970616133        5.2971961989        4.3042689155
 H       -12.7266468437       10.1360173919        2.9589236805
 H       -11.9344629609        9.3995013711        1.5850796979
 H       -10.9964965310        9.4352284547        4.4074279655
 H       -10.1221667955        9.9502157415        2.9587356714
 H        -6.1847706371        7.8931891313        4.1639210189
 H        -5.8120326046        6.3546253179        3.3955184520
 H        -6.3835926357        6.3784773343        5.0564318455
 H        -7.7462537203        8.3626239232        5.8559762482
 H        -9.2401605703        9.0897762727        5.8496847019
 H        -8.2999489364        9.3088068138        4.3732231581
 H        -9.7262493073        5.3018058176        5.1963315824
 H       -10.9586218582        6.5662528094        5.5109305929
 H        -9.5016469835        6.6554153983        6.4380735432
 H       -14.1837634527        7.4476668662        0.0525437887
 H       -12.7050704511        6.4101948721        0.1003445354
 H       -12.6190932403        8.0890207280        0.3597494246
 H       -15.5725144522        7.8885326868        1.6485410043
 H       -15.3830411221        7.1212912727        3.2605582228
 H       -15.5807364358        6.2550832159        1.6765123320
 H       -14.1233106840        0.9717344156        4.3424173220
 H       -13.8540304078        1.5530864953        5.9862017762
 H       -13.4567780197       -0.1407360303        5.5580992800
 H       -10.4424758062        2.1160278057        6.0634933431
 H       -10.7533217552        0.3956353325        6.1356740356
 H       -11.8082045218        1.4098565608        7.0796711467
 H        -9.7264111190        0.4374879999       -0.3587209484
 H        -9.1484680564        1.3533454675       -1.7616260216
 H       -10.4688404483        1.9196177314       -0.8426051586
 H        -6.8538726617        1.1259290999        0.7015569459
 H        -6.6341563393        2.9107083739        0.3566697365
 H        -6.7060172344        1.7798219647       -0.9513848001
 H        -6.7631791270        4.5941346596       -6.3801461522
 H        -7.7200934067        6.0804012956       -6.3552044531
 H        -8.1175553724        4.8298041624       -7.4123196591
 H       -10.3290855961        6.0316405353       -5.6909515842
 H       -10.9417610666        4.4649315527       -5.3834446467
 H       -10.4626897480        4.7683850629       -7.0009768356
 H        -7.6185953899       -0.5485184813       -9.8679387981
 H        -7.0157679677       -2.2032233715       -9.9599830164
 H        -5.8816297394       -0.8196784244       -9.7927573883
 H        -8.5450768472       -2.9735539135       -8.0377789763
 H        -9.2748368279       -1.4185628369       -7.9444246512
 H        -8.4688843783       -2.0806535893       -6.4825034254
 Na      -10.2456638446        4.6424368907        2.3267675676
