117

 C        -4.6147308637       -1.9336474928       -7.8506996058
 C        -5.9332886371       -2.2077463692       -7.0269152380
 O        -6.0057673507       -2.9620561695       -6.0729899171
 C        -7.3003604208       -1.5510715391       -7.6458448340
 C        -7.0860569728        0.0237569276       -7.4520787465
 O        -6.2111495134        0.5999819846       -8.0590772777
 C        -7.7759229916        0.7581048970       -6.3327383375
 C        -7.7455102718        2.2825563715       -6.4543043067
 C        -8.6708170933        2.9434017159       -5.3745344927
 O        -8.9695626576        2.1669032088       -4.4567476035
 C        -9.0739847315        4.4133488919       -5.3889582584
 C        -8.5786452743        5.0456921035       -4.0878899460
 O        -7.8458315601        6.0013527842       -4.1692689522
 C        -9.1441417260        4.6308292932       -2.7655242960
 C        -8.0586517340        4.4318304874       -1.6491443386
 C        -8.6704097834        3.7631428435       -0.4184880021
 O        -9.5055001466        4.2887571115        0.2352274905
 C        -8.2607113700        2.2754968968       -0.0957515852
 C        -8.7032400610        2.0448715800        1.4234989800
 O        -8.4520567822        3.0149066834        2.1122138890
 C        -9.4118133085        0.8677100884        2.0032784215
 C        -9.8736527824        1.2063267464        3.4692584965
 C       -11.3576419874        0.8484549953        3.7183933669
 O       -11.8032371346       -0.1448062541        3.1490975538
 C       -12.2015197453        1.6772110171        4.7828601153
 C       -12.1673427779        3.2308029687        4.2928499991
 O       -11.1196757134        3.8257443975        4.3789696536
 C       -13.5254710360        3.8321478896        3.9172108955
 C       -13.4562479709        5.3282485573        3.6195632524
 C       -13.2579545366        5.7872326043        2.2047239308
 O       -12.5237707770        5.1775166128        1.4411640551
 C       -13.8100531910        7.1715557590        1.8566851470
 C       -13.1754237308        8.2040615133        2.8532136082
 O       -13.6399050443        8.2729847696        3.9754991670
 C       -11.9295178897        9.0218820923        2.5126436744
 C       -10.9213703664        8.9390229052        3.7426236973
 C       -10.1540933419        7.6302483632        3.6920917007
 O       -10.6344517613        6.7906094689        2.9714985736
 C        -8.9034446395        7.2297751820        4.6175115637
 C        -7.7067678587        6.5943473845        3.8206418431
 O        -7.8764415762        5.9601377970        2.7525434296
 C        -6.3726618563        6.4940307604        4.5185011027
 C        -8.4294862769        8.5324809346        5.3663521931
 C        -9.5473478241        6.2382152741        5.6226705584
 C       -13.4720490918        7.5486401279        0.4078351757
 C       -15.3350939601        7.2271210632        2.1614323674
 C       -13.6547157237        1.1127525300        4.8957079650
 C       -11.5602288932        1.6387674280        6.2098786062
 C        -8.8791783257        1.3314914121       -1.1406908334
 C        -6.7413519386        2.1391474377       -0.1659876474
 C        -8.3670256452        5.2216137229       -6.6077069950
 C       -10.6126963851        4.4239564450       -5.4921391431
 C        -7.5374579764       -1.8630067890       -9.1899850752
 C        -8.5729874826       -2.1819029175       -7.0384340939
 H        -4.5638525526       -0.7989746120       -8.0266388363
 H        -4.7298510735       -2.5357613226       -8.7841920676
 H        -3.6586158043       -2.2402489859       -7.3365840122
 H        -7.3183537265        0.5862754067       -5.3662085946
 H        -8.7870485620        0.2929659737       -6.2336176233
 H        -8.0377744138        2.6951552607       -7.4484069446
 H        -6.6850175914        2.5713222220       -6.3687387870
 H        -9.7241225173        3.6922577318       -2.8501700201
 H        -9.7699137951        5.5023800122       -2.3023898870
 H        -7.5803424363        5.3665106877       -1.3875938974
 H        -7.3413843031        3.6943241156       -1.9599158187
 H        -8.8599393961       -0.0447467314        1.8540837014
 H       -10.2015327680        0.7022132630        1.2806399774
 H        -9.7502996615        2.3218180266        3.6668493435
 H        -9.3133553227        0.6272207132        4.2255084372
 H       -14.3344334421        3.6528977259        4.6190371117
 H       -13.7483411938        3.3264757140        2.9663660212
 H       -12.6022329283        5.7767104645        4.2444124974
 H       -14.3443343676        5.8440443849        4.1062271747
 H       -12.1970743420       10.1004738275        2.4046207649
 H       -11.4679844390        8.6912072402        1.6022911685
 H       -11.6518729148        8.8841301721        4.5333622777
 H       -10.2928985700        9.8013571584        3.7241044242
 H        -5.7509861195        7.3984663031        4.3542542479
 H        -5.6604776294        5.7637314290        4.0934986357
 H        -6.5899111391        6.5380911495        5.5799900862
 H        -7.5815368828        8.2762542000        5.9926365578
 H        -9.2829510739        8.8492969094        5.9319581000
 H        -8.0491048530        9.2483164137        4.6213867044
 H       -10.3339319236        5.7073512675        5.0713301502
 H       -10.1143661953        6.6368902247        6.4960325122
 H        -8.8439005134        5.5325858969        6.0370676897
 H       -13.6061698499        6.7199672859       -0.2937092576
 H       -12.4183440083        7.8124929993        0.1971632608
 H       -13.9521224824        8.4340661643        0.0336507148
 H       -15.6398495978        8.2660388826        2.1785118668
 H       -15.6410587295        6.8295360998        3.1346772821
 H       -15.9092366404        6.6152370840        1.4096120390
 H       -14.1952536557        1.2489667241        3.9762424950
 H       -14.1498786830        1.6346729915        5.7215469354
 H       -13.6482457001        0.0944072807        5.2617423636
 H       -10.5839753972        2.0685127298        6.0813763436
 H       -11.4230291491        0.5689748636        6.4240220275
 H       -12.1916875020        2.1889052202        6.8210631591
 H        -8.8890258287        0.2778981366       -0.7901195019
 H        -8.3174931393        1.2936069907       -2.0464465884
 H        -9.8706293912        1.5878326517       -1.4992481780
 H        -6.4473494667        1.2244035817        0.3108156957
 H        -6.1037641897        2.9430168546        0.3195420633
 H        -6.5951103192        2.0106006055       -1.2140513523
 H        -7.3464876123        5.1293437759       -6.4041838552
 H        -8.6048298139        6.2046753108       -6.4948529224
 H        -8.5600201283        4.7696784638       -7.5341923449
 H       -11.0039512688        5.3870240444       -5.5543938629
 H       -11.0973591628        3.9059507982       -4.6510848606
 H       -10.8854618421        4.0587626468       -6.4621746868
 H        -8.5460564288       -1.5112553388       -9.3968975285
 H        -7.4860022271       -2.9212284317       -9.3083659941
 H        -6.7509095052       -1.3932858172       -9.7479656206
 H        -8.7383527332       -3.1913681678       -7.3943434996
 H        -9.5173739920       -1.6552938343       -7.3107561294
 H        -8.5216008529       -2.1929324925       -5.9447330961
 Na      -10.0983930171        4.6671042484        2.3192812906
