117

 C        -4.7746155876       -1.2477620165       -7.5622694146
 C        -5.8714070804       -1.5525376140       -6.5219367962
 O        -5.6729379110       -1.3778955232       -5.3129622361
 C        -7.1894386047       -2.2496552696       -7.0274286351
 C        -8.2898052633       -1.1249942665       -7.0014528542
 O        -8.8301426423       -0.8174359786       -8.0539373875
 C        -8.7481038742       -0.3700932331       -5.7537209689
 C        -9.4266993056        1.0366048186       -6.0633858300
 C       -10.1609580161        1.6615256389       -4.8954655246
 O       -10.6999939905        0.9518077434       -4.0851115864
 C       -10.0793395493        3.2310042967       -4.6909122411
 C        -8.8453504653        3.5368985270       -3.6274662436
 O        -7.8094156159        3.9604271684       -4.0508793050
 C        -9.1300201554        3.3008188355       -2.1366427960
 C        -7.6987560888        3.3327716100       -1.4862315012
 C        -7.8050546128        3.5040334338        0.0707200241
 O        -8.4087863904        4.4952286951        0.4082845473
 C        -7.4925077267        2.3950826903        1.1584384589
 C        -8.7950457412        1.9935091358        1.8525462662
 O        -9.1937858645        2.5382690072        2.8731395763
 C        -9.5913521055        0.8156586039        1.2344270321
 C       -10.8925594485        0.4819494610        2.0262474220
 C       -11.8976052125        1.6806848704        1.9772894599
 O       -12.2022683452        2.0609967496        0.8677594006
 C       -12.4435115285        2.0711891541        3.3674456232
 C       -12.3034181893        3.6533087215        3.2098231640
 O       -11.3335267283        4.1676980573        3.6744256270
 C       -13.4258217438        4.4134987196        2.4280524341
 C       -13.3750948229        5.9726584632        2.6588799159
 C       -12.4902915073        6.5473751051        1.5786162945
 O       -11.6034904629        5.8788715936        1.0086964696
 C       -12.7430842850        8.0062293273        1.2620075334
 C       -12.3627419472        8.7700281206        2.6200215426
 O       -12.9521026247        8.5292346496        3.6754291479
 C       -11.2973118471        9.8233956418        2.5275686635
 C       -10.3817567931        9.6471073854        3.7619641336
 C        -9.7619815140        8.2198787201        3.6284690289
 O       -10.0955920122        7.4317001786        2.7496869347
 C        -8.8853045866        7.7232067973        4.7805313708
 C        -7.6941102360        6.8353613633        4.1608113595
 O        -7.9073794342        5.6655382053        3.8542082489
 C        -6.3287378458        7.4494244713        4.0206729600
 C        -8.3173151377        8.8104703715        5.7530674093
 C        -9.6915198996        6.6820177723        5.5633689812
 C       -11.9120463819        8.3789910906        0.0584456003
 C       -14.2238659036        8.3676649025        0.9668746766
 C       -13.9137037777        1.6052736978        3.4960816875
 C       -11.6680851943        1.7389139886        4.6925606048
 C        -6.7772025530        1.1562650087        0.5915289993
 C        -6.5747080718        3.0390189783        2.2096278139
 C        -9.8358777907        4.1203595474       -5.9915534270
 C       -11.4775831498        3.7940335151       -4.1865864555
 C        -7.0859439906       -2.7902089694       -8.4313957732
 C        -7.5231610691       -3.3961800679       -5.9966408218
 H        -5.0047820742       -0.4671353486       -8.3410296781
 H        -4.4373940654       -2.1226935678       -8.1051047665
 H        -3.9523024357       -0.8316764972       -6.9456892169
 H        -7.8536769978       -0.1791737838       -5.1350995845
 H        -9.3916366102       -1.0426675857       -5.1713204208
 H       -10.2109939204        1.0817552724       -6.8749230900
 H        -8.6457556434        1.7696558800       -6.3957476561
 H        -9.6371601771        2.3599297093       -2.0266561438
 H        -9.7752133845        4.1355195122       -1.7491574210
 H        -7.1118945644        4.1731906063       -1.8612178766
 H        -7.1909828674        2.4076173045       -1.8150862816
 H        -8.9518640931       -0.0864294550        1.1330662220
 H        -9.8368498486        0.9582460689        0.1741433844
 H       -10.6685649838        0.1241792762        3.0480921793
 H       -11.4278105545       -0.2923133253        1.4587760581
 H       -14.3941244583        3.9538324966        2.6658060329
 H       -13.3771073451        4.1144985317        1.3632022185
 H       -13.0410751888        6.3055635420        3.6582459360
 H       -14.4327977533        6.2946420490        2.3997943282
 H       -11.8297881614       10.7304008340        2.6066006705
 H       -10.6841962013        9.7190347982        1.5954053504
 H       -10.9027493390        9.6896737527        4.7609747268
 H        -9.5094788990       10.3644719422        3.7489257885
 H        -6.2552714489        8.1820059209        3.1839065866
 H        -5.5944828515        6.6743160294        3.6615445140
 H        -5.9706676274        7.9916762253        4.8850588608
 H        -7.7395274131        8.3802998004        6.5854245996
 H        -9.1669919048        9.1744115951        6.3385318066
 H        -7.9077870232        9.6310800744        5.1251441722
 H        -9.8978116108        5.8406583046        4.9263027173
 H       -10.6459957736        7.1379947560        5.8501546672
 H        -9.2680510768        6.3032324563        6.4577727936
 H       -11.9940650931        7.5556849500       -0.6812708798
 H       -10.8566595629        8.5376709013        0.3723005194
 H       -12.3121196719        9.2441226918       -0.4504764006
 H       -14.1424320699        9.1864194556        0.2671698633
 H       -14.7752023263        8.7363202094        1.8057740736
 H       -14.6916186638        7.5338306560        0.4091973792
 H       -14.4671544490        1.6953232196        2.5615476660
 H       -14.4473174066        2.3075174163        4.1538482118
 H       -13.9830178677        0.5793134837        3.8900254985
 H       -10.6253663000        2.0268563664        4.5910086014
 H       -11.7136203240        0.7233323466        5.1531942736
 H       -11.9860454095        2.2817689647        5.5131599362
 H        -6.4206185567        0.4833786877        1.3768935656
 H        -5.9583801419        1.5674460013        0.0783576342
 H        -7.3537156881        0.5860094342       -0.1231301768
 H        -6.3100994085        2.3737310318        3.0216099861
 H        -7.0326023698        3.9246323759        2.7566735690
 H        -5.6042855656        3.3758863677        1.8274213722
 H        -8.8662009750        3.9280061769       -6.4078121651
 H        -9.8887371099        5.2010555223       -5.9596325016
 H       -10.5379466211        3.7109906068       -6.7888417519
 H       -11.3560723412        4.7280883999       -3.7126218712
 H       -11.9806220695        3.0460190526       -3.5045398691
 H       -12.2022588200        3.6467330076       -4.9690672793
 H        -8.0222918788       -3.2347359138       -8.7992161752
 H        -6.4343930447       -3.6156886904       -8.5478777310
 H        -6.8462628160       -2.0263097706       -9.1582800071
 H        -6.9770460458       -4.2857157187       -6.3125790219
 H        -8.5631125052       -3.6471319218       -6.0813448746
 H        -7.3014723255       -3.0977320170       -4.9921798255
 Na       -9.6617222538        5.0550567616        2.2329138890
