117

 C        -5.6219364804       -0.5093371581       -7.4601871242
 C        -6.1598615429       -1.2566187579       -6.2636502363
 O        -5.8809591306       -1.0396889526       -5.0896764324
 C        -7.2933437082       -2.2758396368       -6.6392854048
 C        -8.5407711720       -1.2842545668       -6.8429436097
 O        -8.6386858393       -0.7323138349       -7.9320053517
 C        -9.4114865140       -0.8543090298       -5.6322539850
 C        -9.7062134422        0.6471561859       -5.6810081022
 C       -10.1885802662        1.2832569053       -4.3624797295
 O       -10.4260798009        0.5751175366       -3.4177975913
 C       -10.2082130279        2.8354827136       -4.1774962199
 C        -8.6605800473        3.1513269098       -3.8233454848
 O        -8.0008182306        3.9682709366       -4.3673272093
 C        -8.1131308449        2.4331961262       -2.5440394106
 C        -7.3643135591        3.4450734256       -1.6628721889
 C        -7.9015367107        3.5768842477       -0.2424288913
 O        -8.4458428103        4.5643632959        0.1734573804
 C        -7.5972131502        2.4141595285        0.7472592304
 C        -8.8563348250        2.1126443581        1.5973246182
 O        -9.5075735137        2.9804344049        2.1281214710
 C        -9.3936302129        0.6942946328        1.6945215977
 C       -10.6490521953        0.6362652569        2.7019701306
 C       -11.7281668999        1.6230302315        2.1296695352
 O       -11.6552564221        1.8534829947        0.9720127892
 C       -12.9158648451        2.1881170695        3.0228352339
 C       -12.7482541551        3.7512105043        2.9678226829
 O       -11.8973753339        4.3776511193        3.5450867951
 C       -13.7242886929        4.4962964430        2.0561264279
 C       -13.6543979781        5.9922510357        2.1604277762
 C       -12.4587131702        6.5903796906        1.3398701319
 O       -11.6430142453        5.7185647663        0.9965865231
 C       -12.3014741703        8.0644225239        0.9798179850
 C       -12.0458803347        8.9366512655        2.2410650690
 O       -12.8467923668        8.8883659067        3.1763928491
 C       -10.9142674571       10.0067012809        2.4185552072
 C       -10.0997412240        9.6839236803        3.6628053284
 C        -9.5088475486        8.2187309804        3.7222353254
 O        -9.8390410201        7.4580677483        2.8216082683
 C        -8.6228272141        7.8690265759        4.9604994942
 C        -7.5619292033        6.8297077939        4.4585422379
 O        -7.8815667871        5.7504896601        4.0008065054
 C        -6.1302758227        7.2389256423        4.4322953777
 C        -7.8999548035        9.0826520895        5.6235616405
 C        -9.5231874312        7.2380284019        6.0318348707
 C       -11.2092275003        8.2995549712       -0.1623926694
 C       -13.6141181409        8.6084984116        0.2917463175
 C       -14.2442382645        1.6718620914        2.2506050431
 C       -12.7273835616        1.6387955759        4.4904073408
 C        -7.0428927921        1.1349898915        0.0968751410
 C        -6.4711658589        2.9242207594        1.7239352873
 C       -10.6978879774        3.6767344263       -5.3167755564
 C       -11.1569617199        3.1115896970       -2.9578666183
 C        -7.0368073721       -3.0508181009       -7.9189667041
 C        -7.5512600327       -3.2433294921       -5.4552598047
 H        -6.2622929775       -0.3549159450       -8.3876966101
 H        -4.6646456599       -0.8803605521       -7.8861219189
 H        -5.3340083459        0.4599912953       -7.0151855030
 H        -9.0244546242       -1.2432599800       -4.6951238871
 H       -10.3063608181       -1.4504710692       -5.8352809356
 H       -10.3784246629        0.8046878734       -6.4667393510
 H        -8.8048639328        1.2175531182       -5.9610479450
 H        -7.3679005738        1.7360422342       -2.8332244912
 H        -8.9436417810        1.8969247355       -2.0556615889
 H        -7.4393304037        4.4395626459       -2.1147955023
 H        -6.2860196372        3.1497990182       -1.4756664928
 H        -8.6321414008        0.0461385992        2.1652966494
 H        -9.4350980002        0.1519806880        0.7371114610
 H       -10.3298426149        0.9184559648        3.6908758704
 H       -10.9936577437       -0.3976001201        2.6688617661
 H       -14.7596009205        4.1438480705        2.2508861244
 H       -13.4259235296        4.1825448997        1.0398823028
 H       -13.6409800251        6.3183796705        3.1960861854
 H       -14.5918788570        6.3762977892        1.8041814049
 H       -11.3211901499       11.0039068834        2.4525176394
 H       -10.2574716022       10.0593288068        1.4757790121
 H       -10.7120251476        9.7310045323        4.5629356999
 H        -9.2707379545       10.3491437055        3.5987482864
 H        -5.8843276116        8.2880950941        4.2348912372
 H        -5.6183222147        6.6322074421        3.6272778074
 H        -5.5239938050        6.9032370475        5.2579747910
 H        -7.4217591622        8.6825711907        6.4771595890
 H        -8.7038014440        9.7270718488        5.7955055839
 H        -7.1139990310        9.5441790582        5.0625963611
 H        -9.8550118747        6.2537820906        5.6827396339
 H       -10.3827995164        7.9128697993        6.2139448061
 H        -8.9885734875        7.1672158973        6.9933146868
 H       -11.4012405937        7.4610656912       -0.8456774802
 H       -10.1939135112        8.0964556414        0.2026470811
 H       -11.3724470723        9.2615866027       -0.5733599248
 H       -13.4073233586        9.6807989591        0.0206895898
 H       -14.5520934876        8.5273900297        0.8731152890
 H       -13.7683178530        8.0755012022       -0.6888068922
 H       -14.1449874978        1.9116227479        1.1919622072
 H       -15.1788884241        2.0581298132        2.6664822762
 H       -14.2276675846        0.5875806921        2.4038586897
 H       -11.8771591553        2.0932926073        4.9632269505
 H       -12.3943270221        0.5903849624        4.5750018607
 H       -13.5067859518        1.8231104788        5.1457248193
 H        -6.8995376440        0.3598295768        0.8558148640
 H        -6.0817645586        1.3072935124       -0.2642538706
 H        -7.5996456795        0.6609345491       -0.6927624867
 H        -6.1948591024        2.2269819885        2.4884907125
 H        -6.8595394662        3.8427292346        2.2393815089
 H        -5.5963350104        3.3717152966        1.3189487099
 H       -10.0578943713        3.5610945938       -6.1072191567
 H       -10.8151946903        4.6718041141       -5.0053959805
 H       -11.6502410296        3.2868383905       -5.6243731874
 H       -10.9356476227        3.9079230084       -2.3274564824
 H       -11.1404341025        2.1518355643       -2.3960426431
 H       -12.0675555961        3.4368066917       -3.4369542558
 H        -7.9188933769       -3.6951230570       -8.0863721669
 H        -6.1107648126       -3.5705042859       -8.0400843331
 H        -7.0542958076       -2.4332786111       -8.8173433488
 H        -6.7050405371       -3.9365245876       -5.4023918273
 H        -8.4915803372       -3.7187465536       -5.6177434490
 H        -7.4851782649       -2.6842301491       -4.5442440479
 Na       -9.6995792784        5.3176792825        2.3568748451
