117

 C        -5.7514390749       -0.2346236986       -7.1085256553
 C        -6.4780738800       -0.8992034562       -5.9381024833
 O        -6.2451048363       -0.5895576409       -4.7809713612
 C        -7.4448704315       -2.0783794233       -6.2207677569
 C        -8.8285046049       -1.3367181135       -6.4920556185
 O        -8.9770757064       -0.8334304861       -7.5822640524
 C        -9.7868400112       -1.1314940727       -5.2788339314
 C       -10.2604767854        0.2836953027       -5.3004465446
 C       -10.0989416152        0.8602055934       -3.7849827748
 O        -9.5724718908        0.1945310722       -2.8633515523
 C       -10.4859473413        2.3754061807       -3.4585676708
 C        -9.0417124616        3.1135003838       -3.4119374231
 O        -8.8485051828        4.0915131883       -4.1338775959
 C        -7.9322165101        2.5560710458       -2.5085840387
 C        -7.4578202571        3.5782934684       -1.4846278611
 C        -8.1682493259        3.4778464226       -0.0492813700
 O        -9.0678377350        4.2440346617        0.2532443318
 C        -7.5789410880        2.4671772314        0.9397185499
 C        -8.6912337562        2.2088579168        1.9210488299
 O        -8.8386643508        3.0130230724        2.8510415746
 C        -9.5681792687        1.0040060418        1.8307191786
 C       -10.8082737453        1.1118244743        2.6852167271
 C       -12.0059607207        1.4917316459        1.8431201352
 O       -12.0429655820        1.2411181015        0.6028474161
 C       -13.1301071460        2.3217189012        2.5236894540
 C       -12.6715255197        3.8835197366        2.4125440727
 O       -11.7218267483        4.3064292297        3.0377362970
 C       -13.4169313881        4.6858234812        1.3187456629
 C       -13.2328519028        6.1920921703        1.5467058161
 C       -12.0775833840        6.7033988196        0.6621130974
 O       -11.3252214078        5.8811994464        0.1447019028
 C       -11.8646366928        8.2137150291        0.5298296145
 C       -11.6422175384        8.9880203825        1.9083040523
 O       -12.4370264527        8.8452268140        2.7786243269
 C       -10.5341103742       10.0421093403        2.1065674302
 C        -9.6820419219        9.7714931705        3.3718228706
 C        -9.2890542290        8.2951416438        3.4788131736
 O        -9.6836117841        7.5500342027        2.6217468517
 C        -8.5241355185        7.8160534129        4.7515957881
 C        -7.3255002592        6.8853878509        4.2249289226
 O        -7.5607353117        6.1047774655        3.3035670235
 C        -6.0877876785        6.6595513077        5.1140538889
 C        -8.1738542648        8.9715973332        5.6682937980
 C        -9.5377004050        6.8932037765        5.4907510376
 C       -10.6784507390        8.4639912156       -0.4787897652
 C       -13.1157841730        8.9782237023       -0.1068306309
 C       -14.4985922063        1.9380097552        1.8197064468
 C       -13.2255072333        2.0981026920        3.9956613760
 C        -6.9355799574        1.1738127192        0.2436358498
 C        -6.3609283789        3.0359692178        1.6439197890
 C       -11.4605171777        3.0049575157       -4.3750175063
 C       -11.1163134359        2.3587096805       -2.0004134390
 C        -7.2338636756       -2.9277126142       -7.5277421308
 C        -7.4073281344       -3.0341062864       -4.9691504077
 H        -6.4856965718        0.1475173307       -7.7716374872
 H        -5.2236288860       -1.0336405460       -7.6647726353
 H        -5.0214227064        0.5326339599       -6.9083644358
 H        -9.2907181461       -1.3717635323       -4.3346863155
 H       -10.7250565481       -1.7202254920       -5.3596930323
 H       -11.2826155158        0.3483322041       -5.6206264963
 H        -9.5535438683        0.8878908384       -5.9001374068
 H        -7.1837942706        2.1724540373       -3.1245304526
 H        -8.3344706464        1.6502604321       -2.0160894402
 H        -7.6214995217        4.6118641167       -1.8386003053
 H        -6.3454586864        3.5721721702       -1.2733701728
 H        -9.0221989796        0.1041833285        2.2773675817
 H        -9.8267708654        0.8415130298        0.7513981820
 H       -10.7241545773        1.7745480553        3.5682572518
 H       -10.9800323427        0.1119429148        3.0679752740
 H       -14.4918566486        4.3873613275        1.3706828188
 H       -12.8476874618        4.3928386768        0.3913780896
 H       -13.1514632845        6.4395233869        2.6094676254
 H       -14.1739989538        6.7293540835        1.3592834831
 H       -11.0360484139       11.0223876428        2.2757824077
 H        -9.8840063064       10.1560089269        1.1962408438
 H       -10.2344339515       10.0176402714        4.3582130350
 H        -8.7686650788       10.4300051860        3.3300650457
 H        -5.5761710895        7.4744313318        5.6185923269
 H        -5.3223554026        6.0589372210        4.6709364515
 H        -6.4518275707        6.0756920052        5.9752688876
 H        -7.3650565446        8.6789997102        6.3687905716
 H        -9.0206720744        9.2799675737        6.3460981510
 H        -7.9353089639        9.8374446063        5.0118154670
 H        -9.6228668794        5.9625521164        4.9035730439
 H       -10.5507773300        7.3360880794        5.3897320986
 H        -9.1982564958        6.7386317965        6.5064393995
 H       -11.1361182975        8.2516871129       -1.4388738294
 H        -9.8191408194        7.8467676568       -0.1995668809
 H       -10.3930515801        9.5151764582       -0.5056266554
 H       -13.0751716874       10.0083925544        0.0260130004
 H       -14.0768846628        8.7383302970        0.2396640318
 H       -13.1711368582        8.7649322087       -1.2009905639
 H       -14.2840486423        2.1302687003        0.7761883762
 H       -15.3569388210        2.5243369574        2.1629581527
 H       -14.6110788511        0.8712578354        2.0024442501
 H       -12.3787981562        2.5944252014        4.5181753613
 H       -13.3465186309        1.0064240242        4.2601643489
 H       -14.0762524539        2.5747202782        4.4651115806
 H        -6.6579905973        0.4440060740        1.0196152845
 H        -6.0762160514        1.3142267299       -0.4687436569
 H        -7.7356087769        0.6718712351       -0.3724881817
 H        -5.7330868008        2.2661470682        2.1307878783
 H        -6.5048994534        3.6710882030        2.4695645295
 H        -5.6587881565        3.4290944445        0.9046007285
 H       -10.9031978342        3.4054290836       -5.2973955341
 H       -11.9290377177        3.9418398133       -3.8895420178
 H       -12.2334983924        2.2741238844       -4.6106001776
 H       -10.9183562441        3.3192293028       -1.5901096181
 H       -10.9145343020        1.4932678850       -1.3612585101
 H       -12.1439891197        2.1636621547       -2.2256566517
 H        -7.7885454581       -3.8756364560       -7.4314812973
 H        -6.2456118154       -3.2986876845       -7.6496580750
 H        -7.5442773801       -2.3997579058       -8.4156368970
 H        -6.4872590580       -3.6198367167       -5.0320930526
 H        -8.2142577134       -3.7601771360       -5.0792708725
 H        -7.5103321330       -2.3733139469       -4.1194874181
 Na       -9.6292763587        5.1699111382        2.2234583824
