117

 C        -5.6832774398       -0.2955182786       -7.2606159716
 C        -6.2482183883       -1.0281819569       -6.1162783265
 O        -5.9931937703       -0.7723209389       -4.9458546529
 C        -7.4517923232       -2.1327499247       -6.3603019315
 C        -8.7497168275       -1.3379470968       -6.7179434109
 O        -8.8754428205       -0.9962156936       -7.8724456493
 C        -9.7919538480       -0.9935405623       -5.5227510680
 C       -10.1384758756        0.4977813052       -5.4619487017
 C       -10.1981340698        0.9808043738       -3.9685648772
 O        -9.9057991070        0.2855847262       -2.9940334737
 C       -10.3165111420        2.5766427077       -3.6348005188
 C        -8.8732664623        3.1317442514       -3.6493453598
 O        -8.5584096919        3.9776650814       -4.4936371279
 C        -7.8127420503        2.6255191306       -2.7241021310
 C        -7.4799395535        3.6143910271       -1.5515282316
 C        -8.1503493127        3.5746964183       -0.1485978657
 O        -8.6385919703        4.6153175382        0.2809792758
 C        -7.7083610239        2.4714995303        0.8163050569
 C        -8.8739248989        2.1995894439        1.9292479535
 O        -9.0453172513        3.0155742857        2.8211499426
 C        -9.4358228001        0.7549013284        2.0466090865
 C       -10.7661092862        0.7609861053        2.7385160501
 C       -11.8732111317        1.4647298589        1.9653976598
 O       -11.7179973272        1.5343445705        0.7343196420
 C       -13.1907806055        2.2698135714        2.7368189790
 C       -12.6966117518        3.8375608513        2.5270007272
 O       -11.6635188525        4.2779479370        2.9942552637
 C       -13.6465816049        4.7039823428        1.7229938674
 C       -13.3831208396        6.1638179645        1.7698264241
 C       -12.1409538187        6.6591962139        0.8992684904
 O       -11.2962544716        5.8838138747        0.5556062295
 C       -11.9740906867        8.2543280700        0.5705937383
 C       -11.7844632068        8.9182445750        1.9627498877
 O       -12.4756795730        8.5623481325        2.8648927034
 C       -10.7234938698       10.0462413945        2.2726027066
 C       -10.0269343060        9.7659975424        3.5641909915
 C        -9.4898108817        8.2999118722        3.6231440499
 O        -9.7634321342        7.5991547568        2.6880680011
 C        -8.5776685234        7.7627334768        4.8247278066
 C        -7.3881443455        6.7787402328        4.3348942794
 O        -7.5178857930        5.9650811044        3.4254741858
 C        -6.0643250574        6.9407328465        5.0560082008
 C        -7.9354812255        9.0376964730        5.5432045423
 C        -9.4964422009        7.0317253611        5.7807234624
 C       -10.7879743830        8.4514148174       -0.4223154215
 C       -13.3534006181        8.8158958023       -0.0348969174
 C       -14.5840662084        1.8031126494        2.0739194226
 C       -13.2534918102        1.8467652777        4.1852172652
 C        -7.1882557177        1.1173234876        0.1743684400
 C        -6.5563179733        3.1089955501        1.6198634434
 C       -11.2335078496        3.2514597647       -4.7123980069
 C       -11.0411432136        2.6505835803       -2.2748243348
 C        -6.9633049877       -3.0014323084       -7.5235824995
 C        -7.6065382182       -3.1115422036       -5.1792745528
 H        -6.4604451523        0.1331092845       -7.9146200814
 H        -5.0180051804       -0.9617336627       -7.9114226373
 H        -4.8806082531        0.4015336721       -6.9033400850
 H        -9.4470478508       -1.3121403209       -4.5428347221
 H       -10.7275695069       -1.5461632689       -5.6925119440
 H       -11.2002906061        0.7332247014       -5.7411945771
 H        -9.4735996287        1.1127851480       -5.9877686551
 H        -6.9316541003        2.4597933980       -3.3406280875
 H        -8.0823486805        1.6233091573       -2.3633655453
 H        -7.6501488798        4.6704204562       -1.8249939124
 H        -6.3944009617        3.7019591184       -1.3587494517
 H        -8.6627769691        0.1310944779        2.5498294559
 H        -9.4988777362        0.3262156952        1.0544861191
 H       -10.6846131701        1.1792387165        3.7675191305
 H       -11.2331004120       -0.2056826802        2.8052704962
 H       -14.6539480075        4.5542193341        2.1089917692
 H       -13.4570854579        4.3548919811        0.7056145207
 H       -13.2334054601        6.5123912299        2.7528402275
 H       -14.3369185590        6.6996196859        1.5848361812
 H       -11.1470430989       11.0951055212        2.2891707569
 H        -9.9989233999       10.1852641319        1.4943609369
 H       -10.7349649790        9.7324463605        4.3843424385
 H        -9.2598441233       10.5219150598        3.6440204992
 H        -5.5106779348        7.7257933518        4.4947751084
 H        -5.4330208051        6.0797670548        5.1506397981
 H        -6.0455740791        7.2810114863        6.1294784724
 H        -7.8160137393        8.8410723925        6.5899017455
 H        -8.5892295001        9.8956042527        5.4898670813
 H        -6.9717327420        9.1618967445        5.0994156694
 H       -10.2421727915        6.5238104247        5.1981936617
 H       -10.0849993583        7.6941699261        6.4018326144
 H        -8.8406899733        6.4009107415        6.3292543443
 H       -10.8179341825        7.5904210916       -1.0541514414
 H        -9.8920362069        8.5219351500        0.1678644132
 H       -11.0113581712        9.2801077969       -1.1070231605
 H       -13.1577979147        9.8076381800       -0.4719653525
 H       -14.1929868331        8.9384951051        0.7055975581
 H       -13.8367464782        8.1957814036       -0.8444344985
 H       -14.4996316435        1.9498321418        1.0064925856
 H       -15.3320483795        2.3763370674        2.6244256719
 H       -14.7906575351        0.7557638736        2.2819517624
 H       -12.4204617641        2.2168893294        4.7491620198
 H       -13.3141550901        0.8001740893        4.3542302774
 H       -14.1900969846        2.1810453890        4.6508901335
 H        -6.8834482127        0.4065843818        0.8491835770
 H        -6.3468905402        1.3261541161       -0.4766106971
 H        -7.9438569667        0.6346721315       -0.3901127398
 H        -6.2769607955        2.3902729226        2.4256741443
 H        -6.6023486358        3.9671710099        2.1872729432
 H        -5.6660426551        3.1210063765        0.9544544676
 H       -10.6100060752        3.7280322045       -5.4465832992
 H       -11.9204468411        3.9264987013       -4.2882965473
 H       -11.7954486531        2.5374132372       -5.1676149210
 H       -11.1826535937        3.7436883774       -2.0459396227
 H       -10.4252216636        2.1817867624       -1.5248587889
 H       -11.9974323237        2.1137829265       -2.4586302030
 H        -7.6261897615       -3.8615242472       -7.7012135705
 H        -5.9696746345       -3.4492569702       -7.3482546693
 H        -6.9014695509       -2.4602728254       -8.4694994114
 H        -6.7634398162       -3.7495640790       -5.2410614865
 H        -8.5166854198       -3.6970741969       -5.3321741626
 H        -7.6436287574       -2.5201220306       -4.2808972862
 Na       -9.6515696684        5.1868732719        2.3719120546
