117

 C        -5.8349743422       -0.2342329968       -7.1203073073
 C        -6.4952292816       -0.9072668019       -5.8791130768
 O        -6.4654550671       -0.4201917030       -4.7684456662
 C        -7.4176827541       -2.0648925362       -6.1813187628
 C        -8.8179777789       -1.2654796371       -6.3088980221
 O        -9.0643356283       -0.6909268085       -7.3426393306
 C        -9.8548949207       -1.2670501705       -5.1610478051
 C       -10.4639383786        0.1929854178       -4.9551993805
 C       -10.0902986043        0.6995865235       -3.5328324920
 O        -9.5257679038        0.0855723641       -2.6676499662
 C       -10.5204000514        2.2007342962       -3.2158041869
 C        -9.2222816704        3.1147562516       -3.1489740032
 O        -9.2415610564        4.1761273995       -3.7547216409
 C        -7.9350423529        2.5932954845       -2.5301003967
 C        -7.2977876499        3.6018337572       -1.5021944200
 C        -7.9595707177        3.4129160793       -0.1617580489
 O        -9.0350921410        3.9652331595        0.0193181193
 C        -7.3755532619        2.4517817076        0.9845478447
 C        -8.5115051021        2.2108008280        1.9809469656
 O        -8.7574722007        2.9980595764        2.8579148592
 C        -9.4505201745        1.0078804074        1.7593850122
 C       -10.7464266376        1.1558148920        2.6342340368
 C       -12.0863263165        1.4928026244        1.8308802285
 O       -12.2014970615        1.0787993393        0.7333590375
 C       -13.2662359164        2.3657701168        2.4593114860
 C       -12.7186744556        3.9022520399        2.2773197095
 O       -11.7677847929        4.3561784768        2.9079360804
 C       -13.4093450224        4.7775479848        1.1384472263
 C       -13.1580847196        6.2931279823        1.3363304484
 C       -11.9055274993        6.8235473165        0.6232577873
 O       -11.1013696366        6.0390685120        0.1259404422
 C       -11.7415937971        8.4366909342        0.3488038580
 C       -11.5313596520        9.0841402779        1.7331208507
 O       -12.3087655774        8.8039140737        2.6711206144
 C       -10.3671750747       10.1134522004        1.9712643309
 C        -9.5632342838        9.7567551168        3.2483442116
 C        -9.3149696016        8.2609697722        3.4307170924
 O        -9.7623977206        7.5625904295        2.5122707138
 C        -8.6308664109        7.6461663753        4.6950712262
 C        -7.3861646683        6.7377909360        4.2019434520
 O        -7.5397014643        6.0684529550        3.2192622992
 C        -6.1567959685        6.6998338848        5.0902456809
 C        -8.0965873417        8.6774098067        5.7052100506
 C        -9.6971202012        6.6869605030        5.3659257447
 C       -10.5471339963        8.5367919742       -0.6634622881
 C       -13.0430551539        8.9764884525       -0.1709285061
 C       -14.6352016733        2.1617581323        1.7022979977
 C       -13.3215570545        2.1664739351        3.9931079018
 C        -6.9172454077        1.1571263829        0.3487492628
 C        -6.1622549634        3.2927301529        1.6964265326
 C       -11.4006695655        2.8438614136       -4.3626114328
 C       -11.2601103189        2.2422107218       -1.8325774271
 C        -7.0816677039       -2.8928159189       -7.4461132805
 C        -7.5304686997       -3.0396542065       -4.9252306189
 H        -6.4661974579       -0.2603357148       -8.0903407881
 H        -4.8090916992       -0.5886265906       -7.3879626124
 H        -5.7245964140        0.8735619132       -6.9325743639
 H        -9.2363217680       -1.4700741396       -4.2717255480
 H       -10.6517283724       -1.9863223876       -5.2959800126
 H       -11.5570280783        0.2234100568       -5.0477310690
 H        -9.9839849281        0.9043716730       -5.6115874181
 H        -7.1754408103        2.4671290941       -3.3614032436
 H        -8.1171271320        1.6033129060       -2.1606224447
 H        -7.4988423470        4.6391824240       -1.8779887615
 H        -6.1975481505        3.4988437748       -1.4633959931
 H        -8.9061667214        0.1835076413        2.1906074345
 H        -9.6937124788        0.8789800804        0.7023655591
 H       -10.5868228729        1.8690634996        3.4248112788
 H       -10.8914239759        0.2028572755        3.2013639204
 H       -14.4701576543        4.5551253918        1.2121721041
 H       -12.9429760609        4.5653455231        0.1691543827
 H       -13.0088546082        6.5209768020        2.4007878219
 H       -14.0512347820        6.8638335161        1.1693987648
 H       -10.7675140969       11.1271086714        2.1514328458
 H        -9.8031516787       10.0493061752        1.0389424339
 H       -10.1402289877       10.1199922603        4.0616221403
 H        -8.6060626842       10.2938740510        3.3302727242
 H        -6.0473315939        7.5016370636        5.8275464977
 H        -5.1656994375        6.6633236415        4.5499709356
 H        -6.1680229428        5.8525107420        5.7791553958
 H        -8.0618043134        8.2218954928        6.6889447079
 H        -8.8241259382        9.4783323601        5.7535101325
 H        -7.2116411853        9.2117465583        5.3836013880
 H       -10.1184294712        5.9742638657        4.6732008676
 H       -10.4425935713        7.3528351137        5.7601344635
 H        -9.2034618409        6.1835635924        6.1901063032
 H       -10.6147064172        7.6195222917       -1.2663015934
 H        -9.6265656515        8.5668709944       -0.0730386714
 H       -10.5758724757        9.4423888565       -1.2659757488
 H       -13.0280023751        9.9340233680       -0.7646939208
 H       -13.7213302276        9.3264469260        0.6332049830
 H       -13.6198271382        8.2947158129       -0.7462930357
 H       -14.4316838196        2.2614505774        0.6286022895
 H       -15.3334984564        2.9540380851        1.9701025899
 H       -14.9602425644        1.1723190925        2.0060267555
 H       -12.3382302633        2.3067294260        4.3442512593
 H       -13.6483344527        1.1767676289        4.2206104297
 H       -13.8239676853        2.9230874743        4.5731529335
 H        -6.4332563880        0.5792915720        1.1211771575
 H        -6.1766394531        1.3684016257       -0.3430087630
 H        -7.6681076474        0.6174776240       -0.1497861232
 H        -5.8529775644        2.9324307284        2.6504976705
 H        -6.6560883976        4.2759002696        2.0138036521
 H        -5.2324361604        3.4877560484        1.2000705716
 H       -11.1607793475        2.6143794252       -5.3281137884
 H       -11.2312054875        3.8599488432       -4.3045022655
 H       -12.4465491264        2.6549239621       -4.1496102313
 H       -11.1793068669        3.2699141107       -1.4673988578
 H       -10.7924983786        1.5232549984       -1.1696138792
 H       -12.2400391980        1.7756892737       -1.9244391001
 H        -7.7219692269       -3.7401660079       -7.5652975038
 H        -6.0637387132       -3.3122462792       -7.3465626943
 H        -7.1658195046       -2.2843312494       -8.3452639628
 H        -6.7147720688       -3.7362250720       -5.0767251154
 H        -8.4259313869       -3.6212191558       -5.0317587054
 H        -7.4212474016       -2.4670424089       -4.0129068246
 Na       -9.7335716403        5.1908526941        2.0885458972
