117

 C        -5.8363646703       -0.1012978650       -6.8367226684
 C        -6.6328682949       -0.7404280909       -5.6745081391
 O        -6.4656506589       -0.2591591462       -4.5804997691
 C        -7.5230032158       -1.9358825727       -5.9461726331
 C        -8.9603222544       -1.3966224448       -6.0154315509
 O        -9.2465289643       -0.6641170332       -6.9456611846
 C        -9.9195455141       -1.5115100036       -4.7822154871
 C       -10.7163907948       -0.2124876387       -4.6329510767
 C       -10.2710458769        0.5588641354       -3.3289458455
 O        -9.5755786282        0.0073137101       -2.4700593870
 C       -10.6825364959        2.0426275543       -3.0958307078
 C        -9.4077309302        2.9678448506       -2.9157185281
 O        -9.5645040237        4.2061760202       -2.9161615796
 C        -7.9655128938        2.4075241941       -2.8104606400
 C        -7.0928375279        3.1333900187       -1.6660697849
 C        -7.7945307535        3.3125974951       -0.3194639992
 O        -8.7245842778        4.1396104090       -0.1640171006
 C        -7.3309606964        2.5131544292        0.9358308213
 C        -8.5666964135        2.3882016004        2.0027644737
 O        -8.6234776613        3.1018690460        2.9795008719
 C        -9.6516628432        1.2262816966        1.7874658642
 C       -10.8178005778        1.5259159161        2.7012629110
 C       -12.0718785883        1.6516017555        1.8610811225
 O       -12.2546335291        0.8863481750        0.8923558193
 C       -13.2508433151        2.6039375370        2.3674074612
 C       -12.6343155610        3.9921996861        2.0752054652
 O       -11.6411239605        4.3068318044        2.7542649092
 C       -13.1407634056        5.0031968084        0.9337126693
 C       -12.8834746116        6.4748765546        1.2088911603
 C       -11.6804604781        6.9373135189        0.4052566929
 O       -10.7096482603        6.2032483086        0.1734264262
 C       -11.6194901951        8.4709019599        0.0470699151
 C       -11.3263757538        9.1726756476        1.4336026233
 O       -12.2248957173        9.2147949641        2.2786485391
 C       -10.0642394241        9.9874939390        1.8070785347
 C        -9.6046607939        9.5543566356        3.2003627798
 C        -9.4263917019        8.0680511311        3.3531827973
 O        -9.7127340137        7.4424572749        2.3496451586
 C        -8.8069097587        7.3984664937        4.6211953014
 C        -7.5875434819        6.5353506062        4.0722416191
 O        -7.7347108692        5.8123798333        3.1385074159
 C        -6.2352031400        6.5624713055        4.7306045716
 C        -8.3507855491        8.3151539287        5.7818289135
 C        -9.8284550781        6.3769140109        5.1141108414
 C       -10.5408525611        8.7635882890       -1.0504686144
 C       -12.9725052299        9.1196115415       -0.4071701427
 C       -14.4871061834        2.4208681548        1.5521874228
 C       -13.4455743775        2.4721428591        3.8915234898
 C        -6.8455728111        1.1206264273        0.6733902911
 C        -6.2187150827        3.4007534510        1.5828724571
 C       -11.6701604330        2.7477965825       -4.0568290522
 C       -11.2441426617        2.1506139140       -1.6008735065
 C        -7.3509310781       -2.5899112600       -7.3699397858
 C        -7.1839214768       -2.9491717179       -4.8511080003
 H        -6.4642952733        0.6829809180       -7.3855856855
 H        -5.5905382761       -0.7907661690       -7.6771098898
 H        -5.0584214187        0.5510377523       -6.4043623066
 H        -9.3283139495       -1.6509627285       -3.8498497104
 H       -10.4988652577       -2.4051153044       -5.0218498834
 H       -11.7669760663       -0.4795350199       -4.4753128296
 H       -10.6997621175        0.3714622191       -5.5347262883
 H        -7.5760637398        2.5532371890       -3.8175173826
 H        -7.9730478192        1.3712193202       -2.5982531249
 H        -6.8718919220        4.2048385686       -1.9831790255
 H        -6.2081507664        2.4687127658       -1.4715055837
 H        -9.0477765763        0.4905172398        2.3100472739
 H        -9.9407552278        1.0838048311        0.7204021754
 H       -10.6375469921        2.3382661002        3.3697125004
 H       -10.9547677008        0.6873012597        3.4236684362
 H       -14.2433424684        4.8426677798        0.7952783332
 H       -12.5213542382        4.6442169019        0.0382518711
 H       -12.6721720662        6.4693510381        2.2879586701
 H       -13.7672604073        7.0506492419        1.1298530753
 H       -10.3807110292       11.0403413120        1.8260003293
 H        -9.2382269499        9.7130071946        1.0683635529
 H       -10.3019504760        9.7955776147        4.0177203928
 H        -8.7470872047       10.1933980683        3.5704382748
 H        -6.0676439142        7.2841428508        5.5195685421
 H        -5.3808352170        6.6084000559        3.9962143939
 H        -6.0547053803        5.6962182898        5.3354354132
 H        -7.7308275875        7.7509233238        6.5212445658
 H        -9.1818039761        8.8755294788        6.2476627451
 H        -7.5943858040        9.0968109162        5.4690827652
 H        -9.7062456758        5.5425878111        4.4592072092
 H       -10.8000116559        6.7805412167        5.3083876650
 H        -9.4654537999        5.9921380791        6.0690087311
 H       -11.0835993679        8.7293960916       -2.0084379939
 H        -9.9182788784        7.8689249069       -1.2031158823
 H        -9.9430815874        9.6604792654       -0.9349722378
 H       -12.8738480123       10.1969286409       -0.5246334780
 H       -13.8550409622        8.9949455430        0.1459103152
 H       -13.3115448349        8.8425138575       -1.3985499062
 H       -14.2403771203        2.6235974133        0.4888317769
 H       -15.2518354047        3.1403108866        1.8711914808
 H       -14.8554798459        1.3828443653        1.6709472266
 H       -12.6271589674        3.0051280157        4.3733908721
 H       -13.3471849725        1.4423042194        4.2683158103
 H       -14.3019750780        2.9891124583        4.1556398102
 H        -6.5938138014        0.6641964850        1.6744365185
 H        -5.9146775260        1.2250027993        0.1574990462
 H        -7.5800890860        0.5341599679        0.1035020667
 H        -5.6304114850        2.8547677217        2.2792343095
 H        -6.6569374380        4.3203013902        2.0765260717
 H        -5.5623747345        3.9094827468        0.8832010013
 H       -11.1652732267        2.7900891664       -5.0337007723
 H       -11.9449163351        3.7886756310       -3.7614882522
 H       -12.5955458630        2.1373740597       -4.1983598032
 H       -11.5573517312        3.1542338958       -1.3585437923
 H       -10.3808227439        1.7906613683       -1.0016133136
 H       -12.1081608440        1.4622422889       -1.4825611345
 H        -7.9708836146       -3.4624175366       -7.3194074194
 H        -6.3183348485       -2.8251340922       -7.6084839045
 H        -7.7988560400       -2.0073169898       -8.1633864560
 H        -6.1203861757       -3.1861589809       -4.9853869496
 H        -7.8803789775       -3.7561197550       -4.9928617227
 H        -7.2372205854       -2.4633070179       -3.8730078659
 Na       -9.5513520084        5.0455245106        1.8341349802
