117

 C        -5.7737197695       -0.1528802854       -7.0440677004
 C        -6.4700397768       -0.9405471866       -5.9706918638
 O        -6.3524447062       -0.4862783589       -4.8334787952
 C        -7.4971658038       -2.1602996539       -6.2053225271
 C        -8.7887539553       -1.3098551492       -6.4032091734
 O        -9.0187748551       -0.7699730312       -7.4620999917
 C        -9.8166005551       -1.1350477912       -5.2374700571
 C       -10.3464897523        0.3448242284       -5.0061624811
 C       -10.0776215388        0.8430393620       -3.6438568756
 O        -9.5670397028        0.1747399056       -2.7961201952
 C       -10.5419642028        2.3162560883       -3.3141871897
 C        -9.1254327294        3.0874474710       -3.2980546187
 O        -9.0113634502        4.0789120085       -3.9164202456
 C        -7.9083995340        2.5467295969       -2.5080061919
 C        -7.4592612475        3.6249390259       -1.5197563270
 C        -8.0741922963        3.4786892812       -0.1615115586
 O        -9.0586880927        4.0622873916        0.1535891458
 C        -7.4290937733        2.4507066479        0.9663796515
 C        -8.5606741601        2.2460733309        1.9651377932
 O        -8.7721796832        3.0505374228        2.8536342949
 C        -9.4662738641        0.9649732765        1.7802861140
 C       -10.7871346932        1.1201056522        2.6333845415
 C       -11.9731401998        1.5105343252        1.7757659052
 O       -12.1072656409        1.1336142505        0.6460111042
 C       -13.0877875635        2.4045851234        2.4501736148
 C       -12.6818333127        3.8635316511        2.2209456448
 O       -11.8441357500        4.2548899600        2.9979317104
 C       -13.3713247841        4.7793718173        1.2354855519
 C       -13.2026616720        6.2547434045        1.4292424045
 C       -12.0095098277        6.8249169048        0.6567414423
 O       -11.3025348460        6.0112108370        0.1207424914
 C       -11.7688399375        8.3000738162        0.4175424949
 C       -11.5533310407        8.9908721532        1.8214999405
 O       -12.4067576389        8.8114141986        2.6307509835
 C       -10.4527280920       10.1154644670        2.0949560470
 C        -9.6157157452        9.8647228926        3.3033338120
 C        -9.3067671303        8.3383700866        3.4498882264
 O        -9.7144732897        7.5521525874        2.5920600656
 C        -8.5818341971        7.7559221664        4.7116227593
 C        -7.3864327980        6.7575986333        4.2869472939
 O        -7.4448726942        6.0864173509        3.2560301420
 C        -6.1398093953        6.6165689545        5.0739832162
 C        -8.1578186661        8.8719941121        5.7054506476
 C        -9.6033704869        6.7734950003        5.4183329223
 C       -10.5736587581        8.4426022956       -0.5847067342
 C       -13.0923114171        8.9281939664       -0.0596439383
 C       -14.5122414102        2.0931378962        1.8739570055
 C       -13.3680518457        2.1293860577        4.0271695776
 C        -6.9370570979        1.1262609436        0.2739956816
 C        -6.3174927152        3.1421818748        1.7415349003
 C       -11.4363863819        2.8909460597       -4.4038779464
 C       -11.2193676592        2.2179529608       -1.9152073469
 C        -7.1862146031       -2.9430134085       -7.4470051265
 C        -7.4551243358       -3.0666851131       -4.9485023642
 H        -6.4500911587       -0.0009345280       -7.9089864922
 H        -4.9453697880       -0.8177933106       -7.4072573018
 H        -5.3094697086        0.8754002936       -6.8109810675
 H        -9.3467346112       -1.4841956146       -4.3153469367
 H       -10.7514722395       -1.6942355135       -5.4339323609
 H       -11.4599066061        0.2924353742       -5.0136249741
 H        -9.9710170574        1.0274839674       -5.6804639307
 H        -7.1172363621        2.4669156427       -3.2339311435
 H        -8.0547639614        1.5666684429       -2.1536702738
 H        -7.6970294517        4.6554614913       -1.9828574250
 H        -6.3257061020        3.6375960824       -1.3598158811
 H        -8.9653391788       -0.0399229522        1.9721015275
 H        -9.7784373208        1.0965819210        0.7189913640
 H       -10.7063417403        1.9157179941        3.4090669300
 H       -11.0136505971        0.2398578144        3.1996891458
 H       -14.4598483523        4.4988694077        1.2562811103
 H       -12.8168055790        4.5758629911        0.2532244859
 H       -13.1406434544        6.5034407883        2.4474436447
 H       -14.1848445403        6.7284434916        1.2284922336
 H       -10.9386183962       11.1640064926        2.2388844871
 H        -9.8436930114       10.1045915350        1.1947261925
 H       -10.1455918088       10.2089786284        4.2486729403
 H        -8.6598742765       10.4667927672        3.2475138046
 H        -5.8901802941        7.5474926711        5.6188340762
 H        -5.2928435033        6.4383001492        4.4314294740
 H        -6.0845197804        5.8706033429        5.9098793482
 H        -7.6632801407        8.4845552328        6.6098969328
 H        -9.0920274364        9.4093202728        6.0742081871
 H        -7.6424796107        9.6486360786        5.1318360060
 H        -9.8322915516        5.8625701396        4.8675419125
 H       -10.5130851882        7.3457197023        5.4898194106
 H        -9.1940986297        6.5829493052        6.3948038280
 H       -10.8845244550        7.7692426003       -1.3809463214
 H        -9.6597945778        8.1578080502       -0.0797323247
 H       -10.4659042328        9.4803134149       -0.9793131757
 H       -13.0470051400       10.0010063021       -0.1904460812
 H       -13.8828134977        8.9058855784        0.7135005136
 H       -13.5207104327        8.5182436737       -0.9241633287
 H       -14.4999311397        2.1626496349        0.7791926002
 H       -15.2574579213        2.8151175720        2.2682024963
 H       -14.6630819793        1.0878666439        2.2528109444
 H       -12.5837026650        2.3299221123        4.7062308229
 H       -13.6811823229        1.1429631658        4.0598014854
 H       -14.1748669764        2.7664975856        4.5003964401
 H        -6.6049878502        0.3962418408        0.9632962272
 H        -6.1567880054        1.2559336658       -0.5004233135
 H        -7.7893263878        0.7388635098       -0.2769795970
 H        -5.8103003817        2.5524406292        2.5284065030
 H        -6.7026952176        3.9469312569        2.3224330678
 H        -5.4657198487        3.4828537351        1.1353882976
 H       -10.9559863671        2.7641273163       -5.3908670043
 H       -11.5024052074        3.9623908970       -4.3072907702
 H       -12.4188739649        2.4171538789       -4.3363873496
 H       -11.0128435018        3.1905533413       -1.3803006636
 H       -10.9384478428        1.3520200352       -1.4016045584
 H       -12.2425131478        1.9604806932       -2.1080177196
 H        -7.6834346601       -3.8782902565       -7.5505929213
 H        -6.1328599786       -3.2255752923       -7.4418074514
 H        -7.3939109017       -2.3125409523       -8.2887437933
 H        -6.5725188310       -3.6330962066       -5.1252595392
 H        -8.2717273652       -3.7973918022       -4.9150902952
 H        -7.3614046413       -2.3852938767       -4.1075175263
 Na       -9.6746201600        5.1383335831        2.1368097523
