117

 C        -5.9829300718        0.1073774544       -6.6023068900
 C        -6.6841855897       -0.5372399581       -5.4661680595
 O        -6.4703271316       -0.1515244032       -4.3182143715
 C        -7.5746611918       -1.7528011339       -5.8158330725
 C        -9.0308351518       -1.2480920359       -5.8223275825
 O        -9.4700534816       -0.5143129371       -6.6799393971
 C        -9.8659459236       -1.6000296856       -4.5305858304
 C       -10.8730789527       -0.5574901494       -4.1574923459
 C       -10.4372750924        0.2970914182       -2.9672074686
 O        -9.8355103186       -0.1691542888       -1.9731153424
 C       -10.7693828707        1.8464709349       -2.8942001393
 C        -9.4416791038        2.7386309667       -2.7605764652
 O        -9.6523282153        3.9249830325       -2.7226221163
 C        -8.0851358075        2.0584308686       -2.4857993694
 C        -7.1614751366        3.1095237206       -1.7062981774
 C        -7.6683803668        3.2654503047       -0.2983328626
 O        -8.3697886162        4.1988475499       -0.0275786165
 C        -7.2913566396        2.2189526725        0.9213579637
 C        -8.4124729935        2.2526084585        1.9568438994
 O        -8.5507788490        3.2323813458        2.6520516421
 C        -9.6018945431        1.1548022368        1.8554133876
 C       -10.7885802185        1.6182748852        2.7939406212
 C       -12.0959818754        1.6922209241        2.0298231622
 O       -12.3277485400        0.8435868173        1.1776013480
 C       -13.1228365211        2.8153361463        2.2466180883
 C       -12.4637978772        4.1468430301        1.9902126400
 O       -11.5146011434        4.4834305244        2.7170151858
 C       -12.8864844200        5.0242071654        0.8525876734
 C       -12.6794506328        6.5417692754        1.0047374357
 C       -11.5209323813        7.1661153688        0.1319974805
 O       -10.7601878900        6.4162664795       -0.3929047896
 C       -11.5208722134        8.7846228875       -0.1362702615
 C       -11.2903871187        9.4779990771        1.2515566095
 O       -12.1760438881        9.7069181821        2.0254662123
 C        -9.8316080611        9.8536630149        1.7128493685
 C        -9.5397216587        9.3906349037        3.1040743684
 C        -9.4909531001        7.8698062613        3.2428847558
 O        -9.9923813851        7.1749000672        2.3680519090
 C        -8.9152548929        7.2130213557        4.4784478290
 C        -7.5641047192        6.5173495597        4.0263380763
 O        -7.5371064750        5.8078359502        3.0338447853
 C        -6.3387250889        6.8323152829        4.7822598034
 C        -8.6365203901        8.1869377479        5.6393490473
 C        -9.7265702530        5.9410257475        4.9974153481
 C       -10.4808798192        9.2061542828       -1.1713798940
 C       -12.8717582709        9.1325150512       -0.7316754428
 C       -14.4432724745        2.5666883837        1.3846740550
 C       -13.5255463289        2.8034271052        3.7993995866
 C        -6.9532327453        0.7339478082        0.3906730716
 C        -6.0196746823        2.8279080503        1.5756385001
 C       -11.5608814124        2.3732097422       -4.1111227409
 C       -11.5816467156        2.1555849104       -1.6225459523
 C        -7.3765715271       -2.3321811989       -7.2079136460
 C        -7.3052515647       -2.8480177762       -4.7389055464
 H        -6.6470234037        0.5507220508       -7.2943184568
 H        -5.3560133935       -0.5610133866       -7.2061321066
 H        -5.4289946712        0.9143049136       -6.2117643247
 H        -9.1437829502       -1.8424367692       -3.7321175777
 H       -10.4001230077       -2.4743579819       -4.8989114894
 H       -11.7829417822       -1.1181250388       -3.9253322749
 H       -11.2134642546        0.0622654852       -4.9873447338
 H        -7.6129650584        1.7929849287       -3.3977497296
 H        -8.2790163963        1.1700825477       -1.9074379697
 H        -7.3206519316        4.0621229005       -2.2837451927
 H        -6.1060414043        2.7039727985       -1.6952279348
 H        -9.1945563827        0.1397650950        2.0878675246
 H        -9.8784403313        1.2402798267        0.7417111370
 H       -10.5674637204        2.6205011469        3.1187212057
 H       -10.8346113079        1.0544277787        3.7571266841
 H       -13.9372207383        4.7837346060        0.5765599411
 H       -12.2663538554        4.8002819164       -0.0720405131
 H       -12.3966844204        6.8597525845        2.0223823041
 H       -13.6433054225        6.9191872000        0.7788860456
 H        -9.6944017164       10.9322618067        1.6426490070
 H        -9.1579870076        9.2912049478        0.9727134614
 H       -10.3003624635        9.7922304305        3.8381225237
 H        -8.6254685444        9.9474272942        3.5319905541
 H        -5.8018380116        7.6741690582        4.3858506383
 H        -5.6446906199        5.9867920927        4.7485805355
 H        -6.3816853903        7.0559309290        5.8081854068
 H        -8.1491208873        7.7712198689        6.5415107534
 H        -9.5920167252        8.4306162457        6.1257725131
 H        -8.0638399169        9.1213210756        5.4716598846
 H        -9.9374215233        5.2872913198        4.1340555606
 H       -10.6068231575        6.3005305724        5.5779308529
 H        -9.0663591678        5.3926990804        5.7096769664
 H       -10.4050616646        8.5618965226       -2.0568445750
 H        -9.4806769733        9.1116504692       -0.7384865765
 H       -10.6651323068       10.1955107508       -1.5586208257
 H       -12.7170179654       10.0131882296       -1.3110166288
 H       -13.6019565958        9.3757533564       -0.0442071086
 H       -13.4384095244        8.4688674579       -1.3937321364
 H       -14.3068404970        2.6719543254        0.3230494052
 H       -15.2553772163        3.1292969449        1.7829866810
 H       -14.7207924439        1.5251264797        1.5107712177
 H       -12.5556285633        2.8670706604        4.3702386824
 H       -14.0715027362        1.8503701643        4.1320044677
 H       -14.2413456441        3.5535526886        3.9090138182
 H        -6.7137346105        0.1580763903        1.3316519377
 H        -6.0995164913        0.7871825147       -0.2790555097
 H        -7.9040544847        0.2558589015        0.0638003532
 H        -5.8161270404        2.2998961308        2.4937910949
 H        -6.0319373758        3.9162615084        1.7426797554
 H        -5.1977769002        2.8132012203        0.8666589422
 H       -11.0272018543        2.6439389820       -5.0774963883
 H       -12.1033780970        3.2753336017       -3.6567453219
 H       -12.4041326261        1.7620546769       -4.4352510338
 H       -11.6392038982        3.1990605383       -1.5346447812
 H       -11.0538128845        1.8039708930       -0.7019562567
 H       -12.6246311638        1.8791230633       -1.7237977801
 H        -7.9750874735       -3.2556227200       -7.1763610654
 H        -6.3264859381       -2.5186936510       -7.4586017032
 H        -7.8128909698       -1.6349664953       -7.9371074887
 H        -6.3627615958       -3.3773276741       -5.0331185912
 H        -8.1615792085       -3.5315493659       -4.6775015385
 H        -7.1908231373       -2.3421484931       -3.7721498228
 Na       -9.4657693937        5.2369891130        1.5636828580
