117

 C        -6.2592112145        0.5715182081       -6.2701410116
 C        -6.7393033097       -0.3893051261       -5.2324408161
 O        -6.4992263805       -0.1920204901       -4.0644439386
 C        -7.6316080786       -1.6971843419       -5.5817894609
 C        -9.0688046960       -1.1478463148       -5.2595792509
 O        -9.4747565952       -0.2069795311       -5.9007055509
 C        -9.8152512610       -1.8565721774       -4.1625767872
 C       -11.0614607581       -1.0946414710       -3.7249398938
 C       -10.7136376333        0.1051662994       -2.7912134740
 O       -10.2978025806       -0.1909775793       -1.6784211052
 C       -10.9855306558        1.5796118107       -2.9936022187
 C        -9.5566583050        2.3995790197       -2.8377060983
 O        -9.6629057413        3.6176771692       -2.9098220387
 C        -8.2348949234        1.6433025859       -2.6025779092
 C        -7.1460274146        2.4353097232       -1.8146414934
 C        -7.5953314668        2.8742303823       -0.4108763659
 O        -7.7169708390        4.0609750303       -0.1225349109
 C        -7.4838749735        1.8454168366        0.8146572800
 C        -8.6733408093        2.1246474692        1.8979077035
 O        -8.6957814361        3.2178660496        2.5241631026
 C        -9.7846077940        1.0959132282        2.1065319294
 C       -10.9106715283        1.6222461292        2.8989797958
 C       -12.1679272785        1.6733104633        1.9845313834
 O       -12.4340799714        0.8776003430        1.1066927002
 C       -13.1116376631        3.0048426958        2.2288426399
 C       -12.2173286376        4.1839082716        1.7201966660
 O       -11.2004701868        4.5062640612        2.3010506925
 C       -12.5424525467        4.9679315274        0.3606626616
 C       -12.7115164465        6.5200003617        0.5601657385
 C       -11.4522275068        7.2816165870        0.0246197972
 O       -10.3395328122        6.7451369594        0.0915341991
 C       -11.4506335804        8.8231611321       -0.3109717562
 C       -11.1529284433        9.4554463686        1.1174842882
 O       -12.0776452918        9.6923885344        1.8905257550
 C        -9.6628912549        9.7433784072        1.5619772255
 C        -9.4914114911        9.5618768206        3.0418144423
 C        -9.6640717586        8.0796450827        3.4038744317
 O       -10.3660514769        7.4963761849        2.6190367482
 C        -8.8525823204        7.3927897837        4.5550511180
 C        -7.5067078970        6.9831149690        3.9122124980
 O        -7.4325408252        6.5742105084        2.7651501710
 C        -6.2466053131        7.2120851739        4.7426485979
 C        -8.6384468818        8.2521727428        5.7901629907
 C        -9.6534154159        6.1512283822        5.0139639091
 C       -10.2390836206        9.1205182141       -1.3204913236
 C       -12.8468269543        9.2277458554       -0.8293694367
 C       -14.4232196997        2.7164602891        1.4174280846
 C       -13.4059285990        3.2059649825        3.7340354322
 C        -7.3860527835        0.3225471803        0.4735120153
 C        -6.1315882080        2.1863047149        1.4157847575
 C       -11.5419829679        2.0407872696       -4.3766146677
 C       -11.9456859703        2.1902686907       -1.9369446824
 C        -7.5771324420       -2.0517408371       -7.1244180959
 C        -7.1017186497       -2.8378999323       -4.7248956079
 H        -6.8404604220        0.4530843175       -7.1703466572
 H        -5.2509042351        0.4467783167       -6.4580516420
 H        -6.3237890424        1.5891881638       -5.9868770261
 H        -9.0635496928       -1.9483953431       -3.3584363684
 H       -10.0050743220       -2.8948297829       -4.5763029502
 H       -11.7747029849       -1.7492671263       -3.3086190195
 H       -11.5886695906       -0.6676052875       -4.6275718877
 H        -7.9188942912        1.3446982889       -3.5448847927
 H        -8.4219346013        0.7254414325       -2.0312863223
 H        -6.7815303934        3.2505562040       -2.4929797223
 H        -6.2133320353        1.7878374088       -1.7482478682
 H        -9.4384602676        0.1431352953        2.5937398547
 H       -10.1136621100        0.6442834327        1.1196622777
 H       -10.7318367483        2.6242026181        3.2882232509
 H       -11.1826718806        0.9268027669        3.7028083597
 H       -13.3632534604        4.5233755940       -0.2394311846
 H       -11.6914079809        4.7240945721       -0.3222545782
 H       -12.7729395517        6.6240187083        1.6379044556
 H       -13.6508143205        6.8064970421        0.1333432758
 H        -9.4316278931       10.7926433367        1.1958188719
 H        -8.9620068293        9.1292173308        0.9571279080
 H       -10.3285047540       10.1759403500        3.5826573887
 H        -8.5570116320       10.1041868866        3.3424767063
 H        -6.0166135661        8.1800711534        5.1588533596
 H        -5.3573172981        7.0366415989        4.2330989563
 H        -6.2206174470        6.5202958579        5.6023267549
 H        -7.9629688966        7.7708888837        6.4947407750
 H        -9.5575584196        8.4326443370        6.3802855174
 H        -8.3448911525        9.2836982720        5.6413320967
 H        -9.3353466713        5.2982484151        4.3841479231
 H       -10.7428280124        6.1979213791        4.8355081383
 H        -9.2819688847        6.0516419405        6.0295508321
 H       -10.6665252494        9.5895661246       -2.2041273397
 H        -9.7082562396        8.2383376816       -1.5819148151
 H        -9.4204263723        9.8025812373       -1.0657720777
 H       -12.8973778006       10.1886742160       -1.2535503248
 H       -13.5982307155        9.3554238826       -0.0390909917
 H       -13.2903075278        8.5690741313       -1.5361175360
 H       -14.1905202440        2.6114929423        0.3776247107
 H       -15.1908891737        3.4870561512        1.4926354684
 H       -14.8602845287        1.7814261984        1.7133214594
 H       -12.4848577653        3.3171931049        4.3200594682
 H       -14.1300274029        2.4539166786        4.0254499071
 H       -13.9214369805        4.2761308459        3.8173237998
 H        -7.2037999476       -0.1270962860        1.4461233360
 H        -6.5220424506        0.0272765363       -0.2209476256
 H        -8.3758348779        0.0988509037        0.0271849223
 H        -5.9321916570        1.5926826602        2.3432183086
 H        -5.9724694386        3.1904084656        1.7055529742
 H        -5.3603141639        1.8106145677        0.7204730230
 H       -10.7868866618        1.9160286940       -5.1790056711
 H       -11.7727732554        3.1094881511       -4.4736150790
 H       -12.4757429001        1.4516931735       -4.6897099723
 H       -11.7376447278        3.2431099559       -1.7395089594
 H       -11.8586530602        1.6682738716       -1.0008884054
 H       -12.9652888953        2.0005130405       -2.2394700545
 H        -7.9731005422       -3.0509367347       -7.3825040219
 H        -6.5223927719       -2.1159282823       -7.3423151393
 H        -8.0198113063       -1.2107935919       -7.6535257378
 H        -6.1247965432       -3.1380950366       -5.1291460346
 H        -7.6802567273       -3.7744139277       -4.6509905105
 H        -6.9494278302       -2.3811967539       -3.7282927120
 Na       -9.0310469597        5.3348055310        1.3923240249
