117

 C        -6.5828714840        0.8982797300       -5.7743286084
 C        -6.5650086310       -0.4877403420       -5.0857594603
 O        -5.8200686057       -0.6542966260       -4.1143026640
 C        -7.5020545440       -1.6525148580       -5.4653319485
 C        -8.9432829254       -1.2056293181       -4.9579735345
 O        -9.5338086025       -0.3023288052       -5.5244585031
 C        -9.7850684671       -1.9527245873       -3.8412827006
 C       -11.1389207815       -1.2813264106       -3.5380202225
 C       -10.9661758676       -0.0294122916       -2.5227512582
 O       -10.8658332464       -0.2821198666       -1.3562179003
 C       -11.0947166648        1.4537439453       -3.0359280466
 C        -9.8716464606        2.3046987357       -2.7883013333
 O        -9.9173519503        3.4884673528       -2.6029108236
 C        -8.5306276470        1.5314982421       -2.7062591635
 C        -7.4890150420        2.2936994290       -1.8290227893
 C        -7.9236618294        2.6994209019       -0.3999164832
 O        -8.3212052641        3.7791304319       -0.0995415217
 C        -7.7399020146        1.6146328249        0.7852987486
 C        -8.8183583101        1.8913215369        1.8360092389
 O        -8.8964325825        2.9532424195        2.3814502692
 C        -9.8922053776        0.8535721882        2.1991028263
 C       -11.1661652748        1.4930327254        2.9224426881
 C       -12.2369093020        1.9950634088        1.8269105651
 O       -12.4320457610        1.2874975519        0.8788588100
 C       -13.0150294814        3.3964621189        2.0531663081
 C       -11.9421890204        4.3950271373        1.4450024423
 O       -11.0801394425        4.7738858762        2.2211353084
 C       -11.8709805321        4.8445107510       -0.0157094188
 C       -12.2853587958        6.3343675846       -0.0796057959
 C       -11.0808475303        7.2377466426       -0.1895381081
 O        -9.9269291378        6.8811778128       -0.0150369220
 C       -11.3223705386        8.7538530686       -0.4086009774
 C       -11.1161585661        9.4363909258        1.0642287442
 O       -11.9993346729        9.8440968231        1.7340667568
 C        -9.6083164971        9.5661325566        1.4927614421
 C        -9.5167756360        9.5769300912        3.0181593511
 C        -9.6107109927        8.1207122871        3.4663509072
 O       -10.3705434468        7.4152425527        2.7683390216
 C        -8.6547719029        7.5451500255        4.6353514921
 C        -7.2386729113        7.2916552079        3.8828784029
 O        -7.2492304952        6.6290844122        2.8802293646
 C        -6.0445933893        7.8699575597        4.5288000250
 C        -8.5812638680        8.6068445927        5.7387464396
 C        -9.2403223318        6.2430109101        5.2439184741
 C       -10.4214919495        9.2618445974       -1.5751908933
 C       -12.8114984515        9.1229036986       -0.8015799328
 C       -14.3685158863        3.2715450933        1.3574127782
 C       -13.1210579450        3.6915685987        3.6090171658
 C        -7.8796971983        0.2069741192        0.2799360823
 C        -6.3249742763        2.0062150537        1.3981053292
 C       -11.4480322295        1.5827614150       -4.4795124036
 C       -12.2274838621        1.9221142471       -2.0877742893
 C        -7.5284960891       -1.9261972440       -6.9837549274
 C        -6.9943442682       -2.9304237032       -4.6813989102
 H        -7.4842355677        1.3830921588       -5.7415074190
 H        -6.2640841667        0.8838471286       -6.7987717307
 H        -5.8099467022        1.4262127077       -5.2930647300
 H        -9.1904463129       -1.9925329514       -2.8965115005
 H        -9.9775521237       -3.0253338309       -4.0795734279
 H       -11.5684222017       -1.9718183636       -2.7671734482
 H       -11.7503014358       -1.2462169009       -4.3793141500
 H        -8.1416518273        1.2314106808       -3.6724177178
 H        -8.6699812609        0.6175825272       -2.2360131603
 H        -7.0874776001        3.1482697128       -2.4645133068
 H        -6.5876421435        1.6144882697       -1.8027994992
 H        -9.4886583962       -0.0423721271        2.7815237822
 H       -10.2725052137        0.2821490374        1.3218641318
 H       -10.8825303495        2.4018703157        3.4865432273
 H       -11.7516752957        0.7769275316        3.4434090373
 H       -12.4719484831        4.1944345685       -0.6931848497
 H       -10.8207706519        4.6721707701       -0.3712674353
 H       -12.7873732217        6.5965358088        0.8099822514
 H       -13.0251590846        6.4659632575       -0.8771836392
 H        -9.0782021741       10.4432074584        0.9799112378
 H        -9.0437670099        8.7192843347        1.0514781591
 H       -10.4328502046       10.1598122678        3.3538533569
 H        -8.5292436392       10.1236715865        3.1940852229
 H        -6.2504896094        8.5344520774        5.3310157568
 H        -5.4339247840        8.4926341981        3.8240059682
 H        -5.3214173139        7.2061244886        4.9072953766
 H        -7.9198375015        8.4008384073        6.5773437907
 H        -9.5988778013        8.6760365110        6.1226307289
 H        -8.2922404649        9.6171303028        5.4230351574
 H        -9.6304554420        5.6399112705        4.4118347362
 H        -9.9866600093        6.5411226207        5.9885166665
 H        -8.3993000114        5.7256015594        5.7842527679
 H       -10.0378076137        8.3979146079       -2.1173845539
 H        -9.5248329446        9.8201508921       -1.2829101676
 H       -10.9361710848        9.9610326739       -2.2142191037
 H       -13.0490845594       10.1760183121       -1.0838194280
 H       -13.4798960678        8.8493030402       -0.0268432598
 H       -13.1507069872        8.5767645717       -1.6594090516
 H       -14.3439992305        2.6579097083        0.4593785696
 H       -14.7291175529        4.2020654426        0.9547403972
 H       -15.0969985703        2.8503542755        2.0177762061
 H       -12.0903370139        4.0257210677        4.0130412079
 H       -13.3505697037        2.6744236015        4.1228254630
 H       -13.7838395847        4.4816148937        3.8519940493
 H        -7.5627238150       -0.5520039488        1.0583595502
 H        -7.1750916510        0.1309473037       -0.5371296966
 H        -8.9035499511       -0.0136000860       -0.1019057819
 H        -5.8662002352        1.4349723194        2.1737884803
 H        -6.6200360648        2.9953633405        1.8961311643
 H        -5.5829555765        2.2637132252        0.6275322739
 H       -10.5767077660        1.3696506780       -5.1358691441
 H       -11.8015487999        2.6153713036       -4.6997643952
 H       -12.3018359435        0.9864902822       -4.8146567531
 H       -12.5404829460        2.9227155251       -2.4056604195
 H       -11.9506795246        1.9549210462       -1.0672225483
 H       -13.0643494772        1.2402078594       -2.0639070451
 H        -8.1614451909       -2.7824031245       -7.0536716575
 H        -6.5001489916       -2.1176544381       -7.3477152837
 H        -8.0585298873       -1.1421652692       -7.5310613433
 H        -5.9399212469       -3.0640745605       -4.9035903308
 H        -7.5555788657       -3.7915922661       -5.0653996563
 H        -7.0417799008       -2.9947428305       -3.5905368056
 Na       -8.9885989504        5.3649505290        1.6058057713
