117

 C        -4.9716772055       -0.8442082200       -4.5216758668
 C        -6.4266817920       -0.9275429293       -4.1170198050
 O        -6.9372889279       -0.0578296430       -3.4241173469
 C        -7.2016890054       -2.1904803054       -4.7524473428
 C        -8.7869932749       -1.8094942978       -4.9103343127
 O        -9.2769974912       -1.0649204773       -5.7854929487
 C        -9.7186618287       -2.5272051822       -3.9068241471
 C       -11.1534269118       -1.8660048543       -3.7560745333
 C       -10.9974225826       -0.7346985922       -2.7835354808
 O       -10.2579063844       -0.7632532427       -1.7815781611
 C       -11.5874633100        0.6213676295       -3.1312621970
 C       -10.5741476841        1.6276119396       -2.4295571311
 O       -10.8711113325        2.1405643565       -1.3914706620
 C        -9.1628178099        1.8352024153       -2.9121956943
 C        -8.3194165331        2.8327396867       -2.0870013583
 C        -8.8115055791        3.0703049789       -0.6985199231
 O        -9.1911089192        4.1813847534       -0.3775779199
 C        -8.4880955028        2.0631271509        0.4496589194
 C        -9.5683220600        2.1292908412        1.4761325271
 O        -9.5720939703        2.9677265499        2.3232438735
 C       -10.7267793548        1.0536705176        1.3813155924
 C       -11.8724782739        1.4563972284        2.3536933042
 C       -12.9645746510        2.2953987462        1.7879728054
 O       -13.5758734462        1.9188673005        0.7967588336
 C       -13.2723788524        3.7163625933        2.4690214446
 C       -12.1877199897        4.7196033826        1.8892754085
 O       -11.2934729341        5.0663002374        2.6257994315
 C       -12.2463136353        5.3394689308        0.5148045790
 C       -12.1150444731        6.9171236000        0.5424275195
 C       -10.7654823503        7.4242149588       -0.0328056230
 O        -9.7462495275        6.8112451723        0.1028226171
 C       -10.6140212489        8.8778513213       -0.6040744958
 C       -10.7070565688        9.7726959918        0.7017853525
 O       -11.7721444193       10.0383838818        1.2354612391
 C        -9.3154909924       10.1216452901        1.3706503714
 C        -9.2706826575       10.0292008245        2.9552822460
 C        -8.8962534092        8.5872783660        3.2728100658
 O        -9.4721349207        7.6888758995        2.6782660425
 C        -7.7558761559        8.1197524526        4.2269917908
 C        -6.6337858468        7.4053604701        3.3029661870
 O        -6.9341190149        6.4071170619        2.5874967091
 C        -5.1860907470        7.8100700019        3.4350956184
 C        -7.1474977080        9.4072430148        4.9522338271
 C        -8.2730397304        7.0840103048        5.1985219443
 C        -9.3081690403        9.0168312727       -1.4224768775
 C       -11.7973562764        9.2763673150       -1.5237851524
 C       -14.6378677332        4.2393450753        1.9703584940
 C       -13.2135616315        3.6299507456        4.0116369702
 C        -8.2111475290        0.5889313108        0.0426236111
 C        -7.1722305952        2.6342275141        1.1606305226
 C       -11.4871849644        1.0403249242       -4.6946853838
 C       -12.9571451276        0.6334940392       -2.4812809460
 C        -6.7153592899       -2.5963830551       -6.1150095447
 C        -6.9301098544       -3.2533273290       -3.7408348411
 H        -4.8150796666       -0.3428172834       -5.4810299604
 H        -4.5870429448       -1.8071172536       -4.5988717689
 H        -4.3933056873       -0.2863307926       -3.8028906770
 H        -9.3513321326       -2.3966105353       -2.8709141625
 H        -9.8064553935       -3.5947496370       -4.0340846061
 H       -11.8822728382       -2.5842738059       -3.4256788262
 H       -11.5633607365       -1.5598724815       -4.7574239970
 H        -9.2543538999        2.1543215625       -4.0012816680
 H        -8.6512609411        0.8533735005       -3.0285598352
 H        -8.1770027246        3.7223178506       -2.6808940115
 H        -7.3085711919        2.3858342665       -1.9845699791
 H       -10.3549092421        0.0261857633        1.4392514325
 H       -11.1754011707        1.1873952982        0.4052263017
 H       -11.4707703930        1.9559049028        3.2263216909
 H       -12.1981428662        0.5239998924        2.8622905886
 H       -13.1909001600        5.1577148422       -0.0210371289
 H       -11.4615889371        4.8746343016       -0.1183846006
 H       -12.0541361424        7.2959799537        1.5647310382
 H       -13.0001895541        7.3229924231        0.0050949945
 H        -9.1573334663       11.0857536942        0.9303477558
 H        -8.4851104295        9.5025978922        0.9403703451
 H       -10.1234764683       10.4146428209        3.4186237469
 H        -8.5823820814       10.7957209075        3.2949330608
 H        -4.8956387056        8.3087825348        4.3704712512
 H        -4.9529395806        8.5520850857        2.7515888571
 H        -4.5622126390        6.8985591529        3.4453055409
 H        -6.1842582245        9.1455567674        5.3630109762
 H        -7.7951705389        9.7319000572        5.7545917185
 H        -7.0170446991       10.1502750735        4.1977271651
 H        -7.5236167272        6.4927666336        5.7445640431
 H        -8.8966792920        6.3370168835        4.6723231623
 H        -8.9113026123        7.5720192014        5.9331404925
 H        -8.6658447467        8.2305884864       -1.0455930732
 H        -8.8623427317        9.9980885088       -1.3702008991
 H        -9.6087229935        8.8375643119       -2.4423961115
 H       -11.3454993170        9.9320571165       -2.1963093115
 H       -12.5213700956        9.8069892987       -0.9041155754
 H       -12.1434830304        8.5050096867       -2.1390937436
 H       -14.8513607824        3.8962757028        0.9507439706
 H       -14.6992326819        5.3350605385        1.9854602522
 H       -15.4960539155        3.8790167012        2.5774998519
 H       -12.2236602135        3.6806795130        4.3989544026
 H       -13.7390358905        2.8210408986        4.5046402916
 H       -13.6595399807        4.5399431143        4.3773088592
 H        -8.1856826290       -0.0665196167        0.9009944392
 H        -7.2690572616        0.3839623825       -0.4833698579
 H        -9.0602288961        0.2260662780       -0.5396971349
 H        -7.0267819283        1.9749503301        2.0480646607
 H        -7.1471937138        3.5905259926        1.6020654132
 H        -6.3635634076        2.4014315010        0.4570965729
 H       -10.7181951740        0.5208213386       -5.2465034380
 H       -11.3679416507        2.1353319182       -4.7186962961
 H       -12.4705794711        0.8168174672       -5.1982132499
 H       -13.4397906810        1.5640269334       -2.5482134072
 H       -12.8705775987        0.2599724867       -1.4562748778
 H       -13.5221057963       -0.2087894136       -2.8547107406
 H        -7.4807600347       -3.2946994354       -6.4619534065
 H        -5.7134165673       -2.9783371141       -6.1782640311
 H        -6.8577324588       -1.7785595073       -6.8126317943
 H        -5.8711035108       -3.4962713160       -3.6731703094
 H        -7.4424172355       -4.1674372396       -3.8472112833
 H        -7.1568633220       -3.0017193910       -2.7311150311
 Na       -9.0618556100        5.2737722810        1.6937542535
