117

 C        -4.5414270997       -3.3417716990       -2.5536032814
 C        -5.9509689800       -2.7620748394       -2.5542764946
 O        -6.4434268287       -2.0923764542       -1.6431112583
 C        -6.8612009588       -3.0991977665       -3.7887981205
 C        -8.0430507110       -2.1589152923       -3.8112652140
 O        -7.9939717668       -0.9640075467       -4.0852132558
 C        -9.4455679623       -2.7676087672       -3.5914768456
 C       -10.5797994222       -1.8410069347       -4.1635144100
 C       -10.9796299145       -0.8226005418       -3.0297029061
 O       -10.8048876019       -1.0735304561       -1.8727582267
 C       -11.5087469958        0.6760041496       -3.3626810801
 C       -10.6840104098        1.7233092923       -2.5656213213
 O       -10.9127688726        2.0513805845       -1.4134405857
 C        -9.3245465757        2.2793176684       -3.2262612359
 C        -8.2230015421        2.5892349763       -2.2686981218
 C        -8.7891348573        2.9931222161       -0.8609133561
 O        -9.2705166121        4.1242892868       -0.7610184954
 C        -8.5168007576        2.0853811117        0.4003060863
 C        -9.6640036468        2.4150433014        1.4958884459
 O        -9.5166626791        3.3840605700        2.2396269271
 C       -11.0266404434        1.6771497840        1.4526996467
 C       -11.9886339863        2.1650414547        2.5160343662
 C       -13.2989629265        2.9357750274        2.0446480382
 O       -14.1334135891        2.4562958387        1.3189431633
 C       -13.6312281684        4.4146561876        2.7311553407
 C       -12.6957106667        5.5295072225        2.1487949767
 O       -11.5203592833        5.5205198862        2.4416824313
 C       -13.3050814863        6.6462415983        1.2094310983
 C       -12.6487671425        8.0521161738        1.3458328193
 C       -11.7454605357        8.3784879940        0.1619397342
 O       -11.1801261233        7.4249560172       -0.4409393397
 C       -11.4613080023        9.8616473341       -0.1602955792
 C       -10.0423142887       10.2400382374        0.6342698249
 O       -10.0929230841       10.9383031970        1.6309149276
 C        -8.6991532028        9.6845422643        0.1332508819
 C        -7.8539339744        9.5841654420        1.3992798217
 C        -8.2859975829        8.3009985125        2.0962340969
 O        -9.3475227719        7.8078264401        1.8596602358
 C        -7.2062538004        7.4782502238        2.9700545631
 C        -6.2546249325        6.6381691421        2.1096836138
 O        -6.7070357901        5.8720920047        1.2336845298
 C        -4.7535784243        6.6110363498        2.2567198766
 C        -6.4141835441        8.4686416068        3.9225619330
 C        -8.1414957345        6.5348327236        3.8745592779
 C       -11.2600013135        9.9385937180       -1.7144319063
 C       -12.5698323286       10.8272024276        0.3534280526
 C       -15.0817054351        4.8020683984        2.4080496404
 C       -13.4485286905        4.3651833313        4.3275979858
 C        -8.4944115045        0.5723113061       -0.0168139879
 C        -7.1046287998        2.5634569098        0.9096188231
 C       -11.4919099084        0.9859280213       -4.8675484183
 C       -12.9412363031        0.5720185138       -2.7557934220
 C        -6.1256293196       -2.9178544319       -5.1510713088
 C        -7.3255619880       -4.6085288658       -3.6187592494
 H        -4.2334853366       -3.7106908628       -1.5899141497
 H        -3.7914151611       -2.6118753171       -2.7951171936
 H        -4.4536359555       -4.1166085720       -3.2573165333
 H        -9.5383274390       -2.8397752467       -2.5333874723
 H        -9.4881565130       -3.7421547415       -3.9950078078
 H       -11.4032723159       -2.5227309105       -4.3275252233
 H       -10.3186184521       -1.3765030020       -5.1613211492
 H        -9.6625077184        3.2845748473       -3.6571928904
 H        -8.9423091461        1.6769226276       -4.0696193222
 H        -7.6934931295        3.4195897281       -2.6896424891
 H        -7.4326937769        1.8174920554       -2.3115562425
 H       -10.8508421045        0.5802325005        1.5529157057
 H       -11.5046451102        1.7694954221        0.4577792569
 H       -11.4812579176        2.7333275781        3.3014301864
 H       -12.3557628134        1.2467615722        3.0758508879
 H       -14.3730575902        6.8251639738        1.3575114966
 H       -13.0819311504        6.2274315225        0.1975614378
 H       -11.9182135238        8.1782204736        2.1604934109
 H       -13.3610163452        8.8615895329        1.5262727160
 H        -8.2842707111       10.3334053346       -0.6679590220
 H        -8.8599970259        8.6844513292       -0.3806306990
 H        -8.0678527289       10.4688438725        1.9864194562
 H        -6.7875419571        9.5118566616        1.1331686200
 H        -4.3079260799        6.2213434603        1.3489146597
 H        -4.4636361496        5.8255277788        3.0164416468
 H        -4.3011201471        7.5175289121        2.5312514425
 H        -5.9334662245        7.8551484741        4.7209878198
 H        -6.9746289911        9.2899060529        4.4431895281
 H        -5.6606041771        9.0324237074        3.3296426247
 H        -7.8444863548        6.5073813535        4.9437562070
 H        -8.0566633260        5.4728846482        3.5805929702
 H        -9.2157837838        6.7699709824        3.8337983951
 H       -10.6414504648        9.0701495474       -2.0095069924
 H       -10.7553402653       10.7996383026       -2.1316395509
 H       -12.2040406689        9.8847876756       -2.2966290059
 H       -12.4545763722       11.8546452363       -0.1019140851
 H       -12.5459523556       10.9839871418        1.3826532298
 H       -13.5506235640       10.4275245218        0.0617381270
 H       -15.1398038367        4.8856586963        1.3539805180
 H       -15.2532289042        5.7376288975        2.9092673412
 H       -15.8122310357        4.1509941317        2.8268244994
 H       -12.3554344552        4.3826406568        4.4802851226
 H       -13.8715451364        3.4406117215        4.7080374358
 H       -14.0635726311        5.2140309033        4.7759276373
 H        -8.2902985727        0.0093755607        0.8617130590
 H        -7.5535981340        0.3653167667       -0.5729832253
 H        -9.4394975917        0.2135131446       -0.4590266931
 H        -6.7503169576        2.2793080758        1.8802674872
 H        -7.1657683094        3.6447662275        1.0371742298
 H        -6.4119655666        2.4404977197        0.1175991281
 H       -10.4695743992        1.1533484316       -5.2379209127
 H       -12.0885101541        1.8460365950       -5.0766779794
 H       -11.8821107668        0.1695549875       -5.4957010727
 H       -13.4107764454        1.5543368366       -2.9782361923
 H       -12.8863521880        0.2367981057       -1.7578812923
 H       -13.6246493559       -0.1787858321       -3.2040161109
 H        -6.8727679058       -2.9031194477       -5.9750036256
 H        -5.4486930380       -3.7449822344       -5.3100720406
 H        -5.5378812958       -2.0142570702       -5.1436986838
 H        -6.3956012471       -5.2169484456       -3.5152058365
 H        -7.7996620676       -5.0280653578       -4.5177776827
 H        -7.9824605243       -4.7013509849       -2.7255129404
 Na       -9.4426383514        5.5585735596        1.1229653610
