117

 C        -4.4785694365       -2.4952467404       -3.2760634615
 C        -5.9366874437       -2.0715456100       -3.1359372411
 O        -6.3445640900       -1.1606948902       -2.4149659910
 C        -7.0087006530       -2.8477650175       -4.0687766763
 C        -8.3436174375       -2.0503098471       -4.0787637230
 O        -8.3352640709       -0.8516524587       -4.2928006440
 C        -9.7299369817       -2.7678172514       -3.9406076588
 C       -10.8626797285       -1.8081397679       -4.2498866792
 C       -10.9449273099       -0.8411533338       -3.1270285879
 O       -10.5270086347       -1.1234366954       -2.0242245260
 C       -11.6433572864        0.5768673570       -3.3227900018
 C       -10.7763503205        1.6376819731       -2.5231538729
 O       -11.1363266322        2.1998099804       -1.4971432386
 C        -9.3867983325        1.7824705017       -3.0978832976
 C        -8.4465502229        2.6520264009       -2.2580596747
 C        -8.9626839990        2.9836880294       -0.9160824364
 O        -9.4415136913        4.0815774441       -0.5941319812
 C        -8.6253320408        2.0959040766        0.3134132597
 C        -9.7480615850        2.3579601341        1.4421257927
 O        -9.7319785987        3.4224464560        2.0400724916
 C       -10.7742344016        1.3395891483        1.8968120202
 C       -11.9248177877        1.9006161656        2.7230753775
 C       -12.7076954896        2.9261302806        1.9303579380
 O       -12.7305387777        2.9096463723        0.7131926001
 C       -13.4373403136        4.1138205577        2.6472872001
 C       -12.4398836368        5.3011580629        2.3405622572
 O       -11.4312224137        5.5248488402        3.0151596520
 C       -12.7452808495        6.0102936431        1.0055106272
 C       -12.3466896673        7.4594204609        1.1086297708
 C       -11.1894214934        7.9536757288        0.1648471976
 O       -10.3172605831        7.1404225614       -0.1820430166
 C       -11.0362859839        9.3964370776       -0.4041756999
 C       -10.1284003172       10.0879941777        0.6211476844
 O       -10.6510429870       10.7483368924        1.5238732240
 C        -8.5332900038        9.9248779646        0.5166577514
 C        -8.0344884477        9.9954502467        2.0305893339
 C        -8.5801947604        8.6156527804        2.6861670521
 O        -9.7171249678        8.3317862430        2.5211244755
 C        -7.5023891912        7.7610392461        3.5703773494
 C        -6.7060324524        6.9186725548        2.5587457309
 O        -7.2514148581        5.9659432916        2.0135279458
 C        -5.2234299984        7.1449929746        2.2389775094
 C        -6.5968959773        8.5671845420        4.4752071414
 C        -8.2872287435        6.7916445211        4.3974337038
 C       -10.3832352977        9.3192018704       -1.7693692961
 C       -12.4126657928       10.0786455390       -0.4714132896
 C       -14.7900469262        4.1825189546        1.9707982182
 C       -13.5430484228        3.9611265064        4.1861488036
 C        -8.5310474216        0.6107332403       -0.0191641318
 C        -7.2881936372        2.7455477746        0.8489538176
 C       -11.8829258473        0.9538409521       -4.7708939623
 C       -12.9929119239        0.3427443985       -2.6329016660
 C        -6.5336696799       -2.9486125049       -5.5282388735
 C        -7.2400938339       -4.2766343164       -3.6243441412
 H        -4.4262761518       -3.3793515663       -3.9511748150
 H        -4.0230454341       -2.9107234843       -2.3070068337
 H        -3.7943773912       -1.6773633481       -3.6261979460
 H        -9.7424848161       -3.0740764652       -2.8430510590
 H        -9.6901601235       -3.6326489987       -4.6308180522
 H       -11.7380341588       -2.4056633574       -4.3590797216
 H       -10.6126067726       -1.3706291681       -5.2561371491
 H        -9.5470002490        2.1555083133       -4.0662805194
 H        -9.0189619420        0.7752771912       -3.1853734260
 H        -8.2985466094        3.5772896555       -2.7822694815
 H        -7.5118748553        2.0690142370       -2.0723135955
 H       -10.2215434604        0.5821722591        2.4973300468
 H       -11.1072340203        0.8223859538        1.0099547737
 H       -11.5405261937        2.2412373343        3.6402569616
 H       -12.5573140742        1.0172491539        2.7979523503
 H       -13.8042033179        6.0449922844        0.7496898687
 H       -12.2687331555        5.4379818022        0.2085955908
 H       -12.0053043061        7.7940437570        2.1009341631
 H       -13.2015058901        8.0873725114        0.8885932837
 H        -8.1042323030       10.7410433256       -0.0418535464
 H        -8.3423470974        8.9442451337        0.0582747661
 H        -8.6228326917       10.8503112899        2.4644988462
 H        -6.9368749178       10.0972276839        1.9785877627
 H        -5.0832597003        8.1961818311        2.0016692414
 H        -4.8295648698        6.4093296777        1.4609401371
 H        -4.5021766917        6.9022021058        2.9881026715
 H        -5.9869465115        7.8629130179        5.0702986498
 H        -7.1640489179        9.1928452831        5.1908272141
 H        -5.8067518967        9.1315723547        3.9549092354
 H        -7.7050887013        5.9101542467        4.7422393797
 H        -9.1527106001        6.3132681022        3.9166814672
 H        -8.5961721009        7.2352020851        5.3671224999
 H       -10.0080921152        8.3362033642       -2.0045160080
 H        -9.5507866550        9.9692703810       -1.8802480518
 H       -11.0534885787        9.5280402091       -2.5992103681
 H       -12.4086928414       10.9150023887       -1.2658218189
 H       -12.6792223031       10.4110019129        0.5126210210
 H       -13.1266272321        9.3557467299       -0.9256010161
 H       -14.7228634091        4.0758536986        0.9022126820
 H       -15.3248374378        5.0862481748        2.2485700005
 H       -15.2406613508        3.2834539666        2.3352821181
 H       -12.5649514018        4.1086100283        4.6622068543
 H       -14.0463542875        3.0384180698        4.3803994357
 H       -14.1736719406        4.8289568264        4.5327321092
 H        -8.0858591956        0.0574660439        0.8014986755
 H        -7.8766320044        0.5627418196       -0.9403844960
 H        -9.5116340750        0.1908560831       -0.3498204304
 H        -6.9146033977        2.1655137702        1.6891141323
 H        -7.6277931900        3.7326415872        1.2087094523
 H        -6.4038309347        2.8807561553        0.2638695929
 H       -10.9553186654        0.7478038369       -5.3983293804
 H       -12.0235155764        2.0438043732       -4.8540931979
 H       -12.7834225305        0.4286102552       -5.1770670786
 H       -13.6678673665        1.2295981945       -2.6524527789
 H       -12.8610012009        0.1385072424       -1.6124511243
 H       -13.4376518257       -0.5063866213       -3.1678557369
 H        -7.3264161511       -3.3608144452       -6.1758641298
 H        -5.7673886975       -3.7001291223       -5.4968199637
 H        -6.1553979850       -2.0497676581       -5.9731256311
 H        -6.2490789562       -4.7143661300       -3.4449786582
 H        -7.8034702363       -4.9189756383       -4.3205864450
 H        -7.7294389545       -4.3801818036       -2.6416997571
 Na       -9.4807712973        5.6282458912        1.2062124254
