117

 C        -4.4719378392       -2.7218808799       -3.0646504911
 C        -5.9808089908       -2.2904298214       -3.0157897553
 O        -6.3948388575       -1.4269848403       -2.3128579442
 C        -6.9295584467       -3.0376909967       -4.0333632908
 C        -8.3235661417       -2.1814756763       -4.0712754646
 O        -8.1606112543       -0.9848199430       -4.0994279919
 C        -9.7076143556       -2.8836198593       -3.9715490133
 C       -10.7950550628       -1.7869488587       -4.2246893936
 C       -10.9601819283       -0.8772033226       -3.0707402719
 O       -10.6196678515       -1.1862561297       -1.9267910797
 C       -11.6094736871        0.5379982039       -3.3115425413
 C       -10.7515021358        1.5920292305       -2.5515238368
 O       -11.0910285833        2.1154557961       -1.5258678343
 C        -9.3748684528        2.0371290179       -3.1728038850
 C        -8.4319153371        2.7802926669       -2.2246287365
 C        -9.0508239772        3.1842531630       -0.7960514445
 O        -9.4035587231        4.3404959881       -0.6913870282
 C        -8.6971747488        2.2066104538        0.3907882530
 C        -9.6683740701        2.4132581962        1.4885493422
 O        -9.8102348588        3.4481817320        2.1217143940
 C       -10.7267333283        1.3463513998        1.8719592179
 C       -11.9106454800        1.9424301692        2.7551823238
 C       -12.8211855724        2.9183896067        1.9530528245
 O       -12.9960045001        2.8263869537        0.7680333341
 C       -13.5411441010        4.1867645580        2.6902863388
 C       -12.6214479586        5.3295184654        2.1561122098
 O       -11.5012129979        5.3240000118        2.6194605049
 C       -12.9382587087        6.2678383159        1.0222326696
 C       -12.3064389441        7.6589848335        1.2316921471
 C       -11.2771151393        7.9883192569        0.2152727561
 O       -10.5138506673        7.1422446861       -0.2036927429
 C       -11.1180728718        9.4910114951       -0.2629896452
 C       -10.0935910448       10.1561155630        0.7417683843
 O       -10.4760243154       10.9159723188        1.5795320021
 C        -8.5729987190        9.9159294846        0.4750341566
 C        -7.7208811300        9.6559892733        1.7408665466
 C        -8.3425655805        8.4748378636        2.4128382899
 O        -9.5210947382        8.1140662479        2.2709088502
 C        -7.4848432726        7.6254740584        3.4420680270
 C        -6.5818549254        6.8061718590        2.3845986769
 O        -7.0991756621        6.0008302720        1.6359444695
 C        -5.1620215236        7.2465793335        2.2440509121
 C        -6.7389468939        8.6177474873        4.2941169708
 C        -8.4375441610        6.7001508474        4.2476852290
 C       -10.5606418029        9.4805323911       -1.6871081675
 C       -12.4710400636       10.2802506064       -0.2725227560
 C       -15.0049266064        4.3185366914        2.2833826466
 C       -13.4629946269        4.0453163734        4.2120124453
 C        -8.6277792139        0.6858896492       -0.0156346755
 C        -7.2280629278        2.5217238054        0.9015862369
 C       -11.7593210649        1.0282079049       -4.8213163559
 C       -12.9663760700        0.5034997357       -2.6464742176
 C        -6.3647557347       -2.8927196285       -5.4524154528
 C        -7.1511206246       -4.4676996000       -3.5444231706
 H        -4.2323577188       -3.7104840219       -3.2934504866
 H        -3.9773740288       -2.5342649747       -2.1446905687
 H        -4.0222999809       -2.0542684820       -3.7718551668
 H        -9.8053952806       -3.3103169163       -3.0262264163
 H        -9.6211396582       -3.6146001002       -4.7579616150
 H       -11.7648187237       -2.2736806074       -4.4456306629
 H       -10.4146123256       -1.2388491651       -5.0780451313
 H        -9.7459407617        2.7647565881       -3.9647923995
 H        -8.9080159826        1.1675923440       -3.6591999189
 H        -8.2006202280        3.7568224447       -2.7241834627
 H        -7.5570372965        2.1755288666       -2.0545610142
 H       -10.2515372857        0.4796512063        2.3617099565
 H       -11.1330901183        0.9644233362        0.8912237804
 H       -11.4061925162        2.5076563559        3.5891079392
 H       -12.5051491590        1.0987290347        3.1174937718
 H       -14.0383100714        6.3492666214        0.9223547731
 H       -12.5226666068        5.8186399825        0.0835163587
 H       -11.7456336419        7.6768484206        2.1446761601
 H       -12.9356239561        8.5537144847        1.3367512051
 H        -8.1934403620       10.8380999299       -0.0609133853
 H        -8.5778493720        9.0105399234       -0.1861846247
 H        -7.8535051194       10.4928391101        2.3937864479
 H        -6.7028263390        9.3837028240        1.4532366389
 H        -5.0271150211        7.9068474813        1.3890634840
 H        -4.5564910230        6.4177596805        2.2129769316
 H        -4.7001653056        7.7345343778        3.1144886251
 H        -6.0966410468        8.1686528032        5.0743533081
 H        -7.4682641058        9.2342091312        4.8458332140
 H        -6.0460937357        9.2527509835        3.7159709297
 H        -8.0339798132        5.7601704167        4.5928464186
 H        -9.3267041824        6.3439054803        3.7409588313
 H        -8.6896370130        7.2017361363        5.1613125692
 H        -9.7835063774        8.7071752872       -1.8361932855
 H       -10.0698609037       10.4251721844       -2.0241731013
 H       -11.3128360605        9.2981210696       -2.4577765370
 H       -12.3764378151       11.0476076300       -0.9789634816
 H       -12.5686340785       10.7211597039        0.7521136205
 H       -13.3091912950        9.7840541591       -0.6808416381
 H       -15.0819615172        4.2039495758        1.2062055997
 H       -15.2786119587        5.3109333260        2.6130004382
 H       -15.6332287339        3.5992052459        2.8217040156
 H       -12.4595220699        4.3794516459        4.5807640305
 H       -13.8242913542        2.9827091423        4.4620392565
 H       -14.1917461429        4.7146367126        4.5973068452
 H        -8.4334531034        0.2162741174        0.9708058065
 H        -7.8792629333        0.3728109542       -0.7221906414
 H        -9.6359651427        0.3765155020       -0.2634258456
 H        -6.9980224909        1.7976098827        1.6987720826
 H        -6.9147894018        3.4864034746        1.2115424759
 H        -6.5417851086        2.1749864581        0.1046683755
 H       -10.8872223456        1.4185357819       -5.2496922585
 H       -12.5308065237        1.7956279898       -4.8940175150
 H       -12.1027598947        0.1923906299       -5.4224751414
 H       -13.5564193402        1.3118902372       -3.0620392784
 H       -12.8722421225        0.6701612156       -1.5165565251
 H       -13.4386212103       -0.4988632714       -2.7569471467
 H        -7.1012222303       -3.1835174827       -6.1853608510
 H        -5.3867723771       -3.3861770231       -5.5835990369
 H        -6.2086498790       -1.8113571638       -5.6105728516
 H        -6.2069546173       -5.0572152321       -3.5414518003
 H        -7.9041106996       -4.9540286667       -4.1838576987
 H        -7.5420925451       -4.5502639570       -2.5225917585
 Na       -9.4658685616        5.6025136168        1.2784582715
