117

 C        -4.8701441943       -3.8414263857       -1.8161122621
 C        -6.1359854497       -3.1581684297       -2.1077261439
 O        -6.7931931233       -2.6052624997       -1.2117473168
 C        -6.7510703640       -3.1970839665       -3.5209620905
 C        -7.8898581253       -2.1879529139       -3.5907000649
 O        -7.7185613557       -0.9986024243       -3.8444707628
 C        -9.3917614195       -2.7091966521       -3.3911346630
 C       -10.3557659736       -1.7411397107       -4.0045734948
 C       -10.9298790741       -0.6853764340       -3.0919128603
 O       -10.9787486717       -1.0041490048       -1.9159651053
 C       -11.3985647116        0.6823327766       -3.5081426216
 C       -10.5032226009        1.7612896135       -2.7705952475
 O       -10.8898236733        2.3557032160       -1.7946708248
 C        -9.1659996164        2.1175311154       -3.4058792859
 C        -8.2089899694        2.1660056277       -2.1950813539
 C        -8.6962279897        2.8698946703       -0.9801982671
 O        -8.9301337508        4.0854846674       -1.0029105366
 C        -8.6528154380        2.1198270918        0.4228237714
 C        -9.6705854340        2.7476022981        1.5274362213
 O        -9.3692175797        3.8218333500        2.0169754632
 C       -11.0067348216        2.1130272967        1.7751527042
 C       -11.8944321095        2.6741287899        2.9022953198
 C       -13.2487360489        3.1823627355        2.4127138240
 O       -13.9111043824        2.5975456957        1.5720440392
 C       -13.7563539050        4.6350922373        2.9495401632
 C       -12.8306825799        5.5736100011        2.1540497149
 O       -11.6137906187        5.5021250783        2.2207503003
 C       -13.3156256593        6.5798990398        1.1093601724
 C       -12.7628226082        7.9820340720        1.3374741059
 C       -11.7035946068        8.4075606191        0.2218894582
 O       -11.0801961114        7.5284454335       -0.3539085488
 C       -11.4990181259        9.9069009480       -0.0656071827
 C       -10.0633412621       10.1247071569        0.6281575095
 O       -10.0171579953       10.6836006590        1.7292254695
 C        -8.7193810748        9.6677216096        0.0015532137
 C        -7.7015275444        9.4681741812        1.0925088409
 C        -8.1748897046        8.2684163864        1.9449386249
 O        -9.3475775542        7.9015186656        1.9518934381
 C        -7.0305380333        7.4145522124        2.6297114083
 C        -6.6507839074        6.2338690659        1.6648429404
 O        -7.4247677855        5.6942353134        0.9420793935
 C        -5.2166673028        5.7659978672        1.8060069910
 C        -5.7581118403        8.3151287347        2.8340114926
 C        -7.6279818273        6.8271457038        3.9926173373
 C       -11.5814394392       10.2402028678       -1.6026655683
 C       -12.4726779459       10.7705120193        0.7542095853
 C       -15.2294047585        4.8560809312        2.5437722256
 C       -13.4599746303        4.8657839042        4.4678040810
 C        -9.0286094308        0.5977420472        0.2264575340
 C        -7.2123791933        2.2828163901        0.9099713720
 C       -11.3807903578        0.9524840112       -5.0069808893
 C       -12.8650059854        0.7799662240       -2.9489990606
 C        -5.6961025403       -2.9070712765       -4.6421606206
 C        -7.1995422784       -4.6973491935       -3.6467559272
 H        -4.2611074520       -3.1777596130       -1.3192914727
 H        -4.3445026567       -4.1840093381       -2.7092053814
 H        -4.9661130510       -4.6167265369       -1.1403918036
 H        -9.5009442758       -2.7927982412       -2.3218072366
 H        -9.4773140216       -3.7520554330       -3.7443235674
 H       -11.2250779978       -2.3458621414       -4.4641401148
 H        -9.9684291626       -1.2196784857       -4.8739627362
 H        -9.2757183013        3.1689427683       -3.8079936690
 H        -8.7657625233        1.4359945546       -4.2050640385
 H        -7.3427523176        2.7913388582       -2.4666914417
 H        -7.8473598388        1.1998648056       -1.9890851689
 H       -10.8404850714        1.1032819053        2.0419439460
 H       -11.4814275376        2.1719761073        0.8110327072
 H       -11.2783783164        3.4103602853        3.5006957995
 H       -12.1047688943        1.9675896538        3.7054677487
 H       -14.3989131070        6.6460674441        1.1156807273
 H       -12.9779958406        6.1332061962        0.1831993349
 H       -12.2797992712        7.9678753552        2.3492413346
 H       -13.5757697644        8.7619473158        1.3464072227
 H        -8.4465657253       10.3167853831       -0.7707231072
 H        -8.8231880537        8.7465806315       -0.5153309826
 H        -7.4645906193       10.3909661885        1.6229835270
 H        -6.7583528237        9.2415376804        0.6503932193
 H        -5.0974287667        4.6749513642        1.8333081806
 H        -4.7604540679        6.0668718578        2.7042141322
 H        -4.6704912789        6.2310387899        0.9832540976
 H        -5.0895501071        7.8945920377        3.6224828924
 H        -6.0076910102        9.3671023841        3.1093255779
 H        -5.0662724923        8.3132813834        1.9502078333
 H        -7.0869327536        5.9055085577        4.2434810010
 H        -8.6949528721        6.6190229726        3.8610362467
 H        -7.5775316533        7.4909844847        4.8502946153
 H       -10.8222541848        9.8410650499       -2.2965596904
 H       -11.5930086769       11.3434309008       -1.6658987936
 H       -12.5314724393        9.8632014187       -1.9661292464
 H       -12.3954789628       11.8140857750        0.5407270060
 H       -12.3897220313       10.5764212258        1.8391188220
 H       -13.4575522462       10.4791903861        0.6081328158
 H       -15.3594215834        4.6576046443        1.4946409098
 H       -15.5510723913        5.8518799376        2.7168876306
 H       -15.8164076021        4.0921807400        3.0251611234
 H       -12.3721060324        4.7739678506        4.6089074597
 H       -13.9388703095        4.0840703913        5.0529094256
 H       -13.6829008164        5.8400117466        4.7230404928
 H        -9.3629722773        0.0961721689        1.1173624916
 H        -8.1512642793        0.1798379527       -0.1662950417
 H        -9.6796237929        0.4829051114       -0.6096325450
 H        -7.0493880331        1.7320558846        1.8424903453
 H        -6.9349839744        3.2942026720        1.0291242924
 H        -6.4789840075        1.8040915989        0.2338109522
 H       -10.4092859654        1.1370427422       -5.3187826864
 H       -11.9016521678        1.8749239059       -5.2492163256
 H       -11.8178631866        0.1565457843       -5.6176278572
 H       -13.1967997305        1.8232536260       -2.8098442783
 H       -12.9057884496        0.4047600670       -1.9156975359
 H       -13.5388529590        0.2814768058       -3.6945546729
 H        -6.1152653106       -2.9415973621       -5.6324250223
 H        -4.9073639724       -3.6713040688       -4.6004000944
 H        -5.3193856302       -1.8854840410       -4.4853711909
 H        -6.2902554287       -5.2913073720       -3.4859506703
 H        -7.6789911527       -4.8541590510       -4.6236529803
 H        -7.8806593471       -4.8868953176       -2.8192917770
 Na       -9.8052248143        5.7677275751        0.5135881291
