117

 C        -4.6566390412       -3.6527209002       -1.9512028320
 C        -6.0500824349       -3.0617310906       -2.2480762375
 O        -6.6019792134       -2.5058277919       -1.3404208824
 C        -6.7220471685       -3.2612141757       -3.6484949809
 C        -7.9321063069       -2.2516589004       -3.6886789599
 O        -7.6902742695       -1.0813116901       -3.8505947421
 C        -9.3970123459       -2.7274300399       -3.4658075172
 C       -10.5039554667       -1.7413737156       -4.0154892706
 C       -10.9786854363       -0.6304382006       -3.0358458058
 O       -10.8373795298       -0.7617931166       -1.8628224395
 C       -11.5789854895        0.7367360605       -3.5182740152
 C       -10.5965637835        1.7243082599       -2.7843375915
 O       -10.8592399550        2.1298787892       -1.6640244383
 C        -9.2266177086        2.1351165749       -3.3345526760
 C        -8.1538398684        2.1617100366       -2.2674847331
 C        -8.7223229980        2.8847338804       -0.9659183489
 O        -8.8626751945        4.0968427109       -1.0296822154
 C        -8.6738850919        2.1527281703        0.4022292814
 C        -9.6985225942        2.8100670613        1.3582554256
 O        -9.3193455571        3.7140200122        2.0746902025
 C       -11.0837215104        2.1339617799        1.5958583281
 C       -11.9413729149        2.5316498185        2.8437469792
 C       -13.2817137886        3.1463234267        2.3653741412
 O       -13.9133028776        2.6132733662        1.4968264840
 C       -13.7655210580        4.5223772367        2.9133518945
 C       -12.8024893170        5.5485225878        2.1120422939
 O       -11.6037347802        5.4706720834        2.2786731345
 C       -13.3837317959        6.5728249593        1.1628037242
 C       -12.5723171450        7.8902118576        1.3591019146
 C       -11.6676290364        8.3653177074        0.2299726574
 O       -10.9197176378        7.6753565126       -0.4625651837
 C       -11.4919017279        9.9481551743       -0.0050852942
 C       -10.1251063783       10.2316799255        0.7417706093
 O       -10.1008988243       10.8471214813        1.7397531182
 C        -8.9143673396        9.7242866162       -0.0214745782
 C        -7.7936686578        9.2524141312        0.9130200011
 C        -8.2888819651        8.1065839033        1.8617285474
 O        -9.4270050276        7.7257735093        2.0331080146
 C        -7.0466413001        7.4288884330        2.7743943921
 C        -6.4027384086        6.3342479842        1.8581659358
 O        -7.1700770470        5.6858122446        1.0989482664
 C        -4.9390645138        5.9356664974        1.9025266073
 C        -6.0811029753        8.5181808837        3.2610333599
 C        -7.6670876141        6.7389501020        3.9313722790
 C       -11.3582387437       10.2618620893       -1.4932617551
 C       -12.6139563924       10.7902141479        0.5525447142
 C       -15.2613613401        4.6777145525        2.6095247619
 C       -13.5373296436        4.7573188017        4.4156233136
 C        -8.9715262134        0.6579255007        0.3560356074
 C        -7.2466443929        2.3909905621        0.9727734295
 C       -11.6030684989        0.9083852733       -5.0522310738
 C       -12.9773273395        0.9883513081       -2.9410234114
 C        -5.7883953503       -2.9370503612       -4.8428803362
 C        -7.1413160401       -4.7570876034       -3.7256864481
 H        -4.0938085702       -3.0069516367       -1.1798784894
 H        -3.9972009297       -3.8088752926       -2.7715943834
 H        -4.7888079471       -4.6400590880       -1.4266363140
 H        -9.5833343257       -3.0368196082       -2.4434254598
 H        -9.3652821382       -3.6448067140       -4.0244817705
 H       -11.3823045955       -2.3352086690       -4.1149584063
 H       -10.2971764647       -1.3780661102       -5.0563848111
 H        -9.3564286919        3.1355432301       -3.7568151283
 H        -8.9364777911        1.4631944224       -4.1338740788
 H        -7.2282138537        2.6201702482       -2.6313909348
 H        -7.8552772980        1.0779618589       -2.0939327824
 H       -10.9766226183        1.0120102251        1.6696420354
 H       -11.6810175621        2.3538734217        0.6724008253
 H       -11.3922655730        3.0982671325        3.5628028362
 H       -12.1936209814        1.6551547491        3.4757737647
 H       -14.4423012879        6.7259187359        1.4280910351
 H       -13.2681524032        6.1232840003        0.1416861740
 H       -11.9978445923        7.8506950435        2.2708131930
 H       -13.2125662356        8.7288186240        1.4318182452
 H        -8.6077895817       10.5260013107       -0.7752842288
 H        -9.2274504054        8.9315166211       -0.7787409360
 H        -7.4167891528       10.1447552138        1.4401974651
 H        -6.8905819493        8.9008327609        0.3258232800
 H        -4.8801320123        4.8684053904        1.9495056992
 H        -4.4168601736        6.1563910536        2.8814888325
 H        -4.3908169182        6.3642194583        1.0914391311
 H        -5.3911031916        8.0983809977        4.0068234688
 H        -6.6938121986        9.2711133868        3.7829075952
 H        -5.4802648594        9.0541288295        2.5156218199
 H        -7.2438378341        5.7581236738        4.2118982695
 H        -8.7668052038        6.7181231785        3.8381650716
 H        -7.5474443253        7.4243452768        4.8058618964
 H       -10.7150153192        9.5268498848       -1.9426153404
 H       -10.9286063845       11.2140604186       -1.6899453179
 H       -12.2804154028       10.1008891543       -2.0487244365
 H       -12.3345192683       11.8529713304        0.3532407962
 H       -12.7657661672       10.7526962805        1.5928740360
 H       -13.6297515428       10.4542461749        0.1883370016
 H       -15.5081151316        4.5375016522        1.5604649621
 H       -15.5779507240        5.6633153989        2.9657704981
 H       -15.7476162400        3.8937501463        3.1706662930
 H       -12.4739965303        4.8696637069        4.7029545186
 H       -13.9485690387        3.8560749007        4.8796532058
 H       -14.0735654350        5.7748434243        4.6792294391
 H        -8.6944338560        0.3781504024        1.3784386486
 H        -8.2968235884        0.1584173487       -0.4085938161
 H        -9.9999668461        0.3372665532        0.0988829890
 H        -7.0888165249        1.9928314381        1.9849260081
 H        -7.0147559308        3.4881017000        1.0530854273
 H        -6.5196330313        1.9524420116        0.2998884868
 H       -10.6395061619        0.6790457314       -5.6287692439
 H       -11.8663680552        1.9251091767       -5.3903590398
 H       -12.4169421399        0.2525696647       -5.3982181064
 H       -13.4133543278        1.9174705285       -3.3664979573
 H       -12.9407974036        1.0694715868       -1.8598255093
 H       -13.6601572274        0.2099793806       -3.2756778345
 H        -6.3471876392       -3.2477692591       -5.7356703058
 H        -4.9193791986       -3.5518995902       -4.8671557920
 H        -5.5708623090       -1.8933220980       -4.8865091220
 H        -6.2252027905       -5.3766506573       -3.6793608838
 H        -7.6256967791       -4.8720754725       -4.7097722558
 H        -7.8418080701       -4.9656960780       -2.8969091841
 Na       -9.7187825323        5.6587899183        0.6730884846
