117

 C        -5.3548503675       -4.2049983932       -1.0693196395
 C        -6.4550944892       -3.3194124676       -1.6979732292
 O        -7.1790118394       -2.7109528188       -0.9701510681
 C        -6.6411062486       -3.3038984942       -3.2608042243
 C        -7.8098038220       -2.2858579937       -3.5350728560
 O        -7.5165008758       -1.1237998760       -3.6692848984
 C        -9.3468569773       -2.7518260008       -3.5973433077
 C       -10.3203099569       -1.8005710750       -4.2538774828
 C       -10.8825363135       -0.7501969657       -3.1662568259
 O       -11.0549434923       -1.0376989413       -2.0075778116
 C       -11.5052118280        0.7194447446       -3.6274758862
 C       -10.5627918230        1.5822488081       -2.7527491951
 O       -11.0188390200        2.0625565237       -1.7041282110
 C        -9.1023023192        1.7358752261       -3.1728992011
 C        -8.3168038096        2.7080973005       -2.1736966146
 C        -8.9737023763        3.0673530587       -0.8138545072
 O        -9.2384348594        4.2235175902       -0.6949865377
 C        -8.9026862455        2.0181855259        0.4857695386
 C        -9.8155771265        2.5606235516        1.6036483567
 O        -9.6549479886        3.6851458590        2.0031589483
 C       -10.9956299644        1.7212331549        2.0196972414
 C       -11.7678562156        2.5158958482        3.0866036699
 C       -13.0225653506        3.2409881628        2.4816887012
 O       -13.7778144978        2.5376242197        1.8406983547
 C       -13.5665271329        4.7093336340        2.9312632007
 C       -12.7934445211        5.8576515870        2.1672478147
 O       -11.6620281796        6.1515612366        2.4548014772
 C       -13.4345584988        6.5398473243        0.9294717623
 C       -13.1154090206        8.0346710232        0.8137468189
 C       -11.8166354616        8.4876584961        0.0869192473
 O       -10.9707175098        7.6623795491       -0.3113207620
 C       -11.4764179420       10.0029151453       -0.0738518812
 C       -10.0638551044       10.2992227761        0.7100282579
 O       -10.0372335641       10.9674320548        1.6910005588
 C        -8.8201442618        9.8978620063       -0.1061247044
 C        -7.5682109904        9.4624627057        0.6631505335
 C        -7.8524542304        8.3102324684        1.5694487807
 O        -8.9950277011        8.0044052802        1.7914399514
 C        -6.7783619304        7.3526839554        2.2097191754
 C        -6.5715257750        6.0759616131        1.3535840482
 O        -7.3287110088        5.8474456996        0.4226262815
 C        -5.3673603000        5.1789158242        1.7100516468
 C        -5.4141328425        8.1788220742        2.2769923938
 C        -7.2229075160        6.8617537293        3.6085559816
 C       -11.2206130414       10.5200835788       -1.5247328429
 C       -12.5186709637       10.9743407047        0.5399119740
 C       -15.1293545704        4.6668872782        2.7869068344
 C       -13.3253709797        4.9205120705        4.4461386323
 C        -9.3125349021        0.5841377843        0.0511668236
 C        -7.4056639481        1.9491133271        0.8581551307
 C       -11.3986950890        1.1741181689       -5.1317837362
 C       -12.9382305794        0.8224540071       -3.1421507271
 C        -5.3241088283       -2.7020053087       -3.8441209017
 C        -6.9422281322       -4.7745185918       -3.6837793905
 H        -4.3487327506       -3.9763125652       -1.3846122848
 H        -5.4834146568       -5.2037914548       -1.1420198940
 H        -5.3454298957       -3.9403291628       -0.0437130911
 H        -9.6317395689       -3.0132102291       -2.5720694889
 H        -9.2289331810       -3.7139226131       -4.1593630978
 H       -11.2049114819       -2.3327018540       -4.6423837898
 H        -9.9854560329       -1.1322577798       -5.1070338790
 H        -8.9320181626        1.9697988021       -4.2760519388
 H        -8.6630274184        0.7146122239       -3.0669912562
 H        -8.3061928961        3.6437485003       -2.6832949839
 H        -7.2918751338        2.3464391649       -1.9923149885
 H       -10.6835859323        0.8428010494        2.5212130033
 H       -11.6888869976        1.4464731797        1.2442134309
 H       -11.0635102528        3.2348399054        3.5806775323
 H       -12.1201195572        1.9034519223        3.9414751151
 H       -14.4912175799        6.4163200975        0.7988294436
 H       -12.9885123063        6.0102016661        0.0762511786
 H       -12.9309169086        8.4788895723        1.8185548973
 H       -13.9690883753        8.5682955510        0.2586897653
 H        -8.4921649545       10.6533281500       -0.7436161685
 H        -9.1206897636        9.0641172811       -0.6919765487
 H        -7.2453149168       10.3062958033        1.2015294341
 H        -6.6912113458        9.3049116393        0.0212225001
 H        -4.7357376176        5.0481731722        0.8658514507
 H        -5.7086228571        4.1433231379        2.0143621888
 H        -4.7767396736        5.5372100066        2.5123199451
 H        -4.4941121650        7.8138455009        2.8341067976
 H        -5.8075759630        9.0765063406        2.8443707777
 H        -5.1056507336        8.5084518303        1.2455552533
 H        -6.4500039148        6.1474117917        3.9552827413
 H        -8.2117608555        6.3686835657        3.5575095042
 H        -7.1694982118        7.7009153519        4.3359534057
 H       -10.5115509529        9.8278754498       -1.9637671205
 H       -10.7471258015       11.4807904422       -1.4527171254
 H       -12.1105099183       10.6820933747       -2.1469511432
 H       -12.4292452535       11.9625982158        0.1154096169
 H       -12.4548754128       11.0721307674        1.5572665324
 H       -13.5161776427       10.7730429469        0.1836902255
 H       -15.4609330063        4.3427534104        1.8263182240
 H       -15.6684137131        5.5652066190        3.0560655244
 H       -15.3931099047        3.9400048551        3.5362433834
 H       -12.3299695913        5.1410351505        4.6452855217
 H       -13.6352634170        4.0703967132        4.9763439381
 H       -14.0031809353        5.7146896821        4.8868583615
 H        -9.1119223296       -0.1482567600        0.8034718971
 H        -8.5801741561        0.3864386735       -0.7797514748
 H       -10.3345482463        0.5051638259       -0.2765253758
 H        -7.2584179362        1.3071582518        1.7285833640
 H        -7.0321606463        2.9699763740        1.0553659513
 H        -6.7428909784        1.5060789955        0.1408953422
 H       -10.4178351434        1.0416290563       -5.6314161708
 H       -11.7679544417        2.1714305400       -5.2265403314
 H       -12.0610084248        0.5527838197       -5.7280989525
 H       -13.4637719620        1.7194686897       -3.5560166937
 H       -12.9663311206        1.0537869433       -2.0718293383
 H       -13.3851583731       -0.1574575841       -3.3667943732
 H        -5.3696922248       -2.7043107402       -4.9498322771
 H        -4.4944338650       -3.2742927957       -3.4787546144
 H        -5.2064214128       -1.6775459595       -3.5556639094
 H        -6.0223268797       -5.3320023487       -3.3930289356
 H        -7.0662298524       -4.7166795950       -4.7578201999
 H        -7.8239670516       -5.1177454196       -3.1194172982
 Na       -9.8994400349        5.8913703615        0.8744328934
