117

 C        -4.9113530245       -3.9256044551       -1.7305926898
 C        -6.2049302094       -3.1327681852       -1.9672131379
 O        -6.8823873490       -2.6023931928       -1.1233048606
 C        -6.7870318903       -3.2338915710       -3.4533833027
 C        -7.8774881972       -2.2318456472       -3.5895383349
 O        -7.6509909612       -1.0768045363       -3.8716834046
 C        -9.3540527500       -2.7236567504       -3.4633181931
 C       -10.2077174971       -1.6858957834       -4.1155855681
 C       -10.8769349626       -0.7696479038       -2.9846370680
 O       -11.0748663597       -1.0558636057       -1.8433537627
 C       -11.3851834048        0.6773836756       -3.5231437303
 C       -10.5518594064        1.7813956575       -2.8178848540
 O       -10.9723810773        2.3499262042       -1.8403571352
 C        -9.1238728545        2.0828569861       -3.3229888054
 C        -8.0877618991        2.2725065943       -2.1649643507
 C        -8.6650408453        2.9761134550       -0.9357155021
 O        -9.0856574794        4.1274149325       -0.8620242742
 C        -8.6675582147        2.0998084202        0.4680456242
 C        -9.7068497004        2.7161661888        1.4212996537
 O        -9.4653241030        3.7738668465        1.9857055815
 C       -11.0276356892        1.9248960088        1.7665404006
 C       -11.7668142677        2.8110612084        2.8213194857
 C       -13.1806251304        3.2589691925        2.4151784122
 O       -13.8844896997        2.6071528643        1.7036879275
 C       -13.6769346130        4.6884742040        2.8909399629
 C       -12.7448012278        5.6076465487        2.0454169380
 O       -11.5689787159        5.5111803896        2.2434970367
 C       -13.2989819295        6.5883426125        0.9730858868
 C       -12.8468143091        7.9805308084        1.3260301011
 C       -11.8170393128        8.4248283068        0.2648953172
 O       -11.2304239238        7.5290314367       -0.4086358571
 C       -11.4974186169        9.9072869139        0.0117439667
 C       -10.0262967508       10.1814395740        0.6184181242
 O       -10.0634697164       10.6853647134        1.6697044294
 C        -8.7024471191        9.7071855110       -0.0240742514
 C        -7.6464819983        9.4689626730        1.0404287941
 C        -8.0806972428        8.3260155828        1.9133115522
 O        -9.2476526051        7.9545479500        1.8470245090
 C        -6.9821583920        7.4299819520        2.5793188730
 C        -6.6957290063        6.1994923637        1.6855789246
 O        -7.5464115374        5.7897631349        0.8833973495
 C        -5.3513021562        5.5027131123        1.6592902170
 C        -5.6938998871        8.1988065583        2.8244457594
 C        -7.4886356602        6.9353317855        3.8974361782
 C       -11.6324619464       10.1703103238       -1.4967925841
 C       -12.3679164589       10.8553431111        0.7256194710
 C       -15.1677772537        4.8559471628        2.6133890918
 C       -13.4694947505        4.8456168738        4.4500353857
 C        -9.0882876102        0.6144024266        0.2261167716
 C        -7.1414297913        2.2043698591        0.9807177307
 C       -11.3061915139        0.9014739533       -5.0525924430
 C       -12.8937310750        0.7323141008       -2.9730820829
 C        -5.6689619333       -2.7531234966       -4.4582255831
 C        -7.3567776509       -4.6984236131       -3.6719818601
 H        -4.0971341401       -3.2774748374       -1.3066425205
 H        -4.5435684571       -4.3763349667       -2.5998392752
 H        -5.0099317558       -4.6534066847       -0.9422076342
 H        -9.5523061847       -2.9316859644       -2.3839254506
 H        -9.4094439084       -3.7580985750       -3.9433543319
 H       -11.0150105516       -2.2148799069       -4.6235137857
 H        -9.7814146599       -1.0773816301       -4.9361872396
 H        -9.1180106358        3.0456576785       -3.8423342038
 H        -8.7485184636        1.3415770326       -3.9799230007
 H        -7.3130913059        2.9322758531       -2.5703280727
 H        -7.6483646928        1.2995046012       -1.8898844430
 H       -10.7457654771        1.0434788156        2.3033374827
 H       -11.6449382529        1.7108009273        0.8999510201
 H       -11.1006730830        3.6650746788        2.9610197411
 H       -11.7629086765        2.4870026774        3.8463401463
 H       -14.3627265386        6.5561557504        0.8825004274
 H       -12.8491933376        6.2653053068        0.0308796264
 H       -12.3323742581        7.9759623289        2.2875602681
 H       -13.6566134560        8.7686256522        1.3384950954
 H        -8.4501682377       10.3904907232       -0.7871612458
 H        -8.8639311977        8.7722754562       -0.5689498252
 H        -7.6845163007       10.3040397276        1.7138346531
 H        -6.6050484249        9.5431849540        0.6865089833
 H        -5.4369215327        4.4706907503        1.3075167350
 H        -4.9131184426        5.3741771273        2.7153021268
 H        -4.6793857709        6.0657790814        1.0610998668
 H        -4.9243486720        7.7223775246        3.3927191663
 H        -5.9101266388        9.1913990235        3.1927014780
 H        -5.2228206234        8.2960116259        1.8707039079
 H        -6.6736616408        6.3191984682        4.2469316282
 H        -8.3588997711        6.3262166300        3.7510592245
 H        -7.7212949210        7.6482501514        4.6443305577
 H       -10.8991949894        9.5778918695       -2.0809850670
 H       -11.5450870713       11.2308490825       -1.7269275338
 H       -12.6298954935        9.8138883898       -1.8479819801
 H       -12.0513222170       11.9231793173        0.5486458803
 H       -12.5361559120       10.6254999868        1.7113911821
 H       -13.3695751992       10.8227566655        0.2717661176
 H       -15.4141384307        4.6446959713        1.5722391207
 H       -15.4297993370        5.9062359271        2.7641819559
 H       -15.7533397422        4.1301406037        3.1900602438
 H       -12.4537127147        4.7520260257        4.6313311385
 H       -14.0022658015        4.1781016407        5.0061340505
 H       -13.6863637233        5.9016009556        4.7020144238
 H        -9.4969651741        0.1641128903        1.0683045121
 H        -8.1799196596        0.1079872378       -0.1147156479
 H        -9.6978836269        0.5500036655       -0.6344678681
 H        -6.8718435032        1.5306910743        1.7912773653
 H        -6.9287421580        3.2352564552        1.2225869388
 H        -6.4150803496        1.9057269549        0.2368452736
 H       -10.2726513315        1.0029571956       -5.2953694552
 H       -11.7550554550        1.7937613225       -5.3426960231
 H       -11.7089649559        0.1098492536       -5.6588495558
 H       -13.2422654197        1.7485031004       -2.7529523388
 H       -12.9421584018        0.3580332049       -1.9953420964
 H       -13.5345064104        0.2420230545       -3.7446490911
 H        -6.0434251872       -2.6017999180       -5.5057502294
 H        -4.8034670961       -3.4155631851       -4.4690481497
 H        -5.4330821605       -1.7487886453       -4.1086201171
 H        -6.5122604653       -5.3829683246       -3.6015588920
 H        -7.8892154858       -4.7069049722       -4.5771968004
 H        -7.9953849630       -4.8849882675       -2.8344355943
 Na       -9.8043344897        5.7799779084        0.5722294314
