117

 C        -4.5827571417       -3.5653148409       -2.1252314946
 C        -5.9814597674       -3.0324935536       -2.3126952777
 O        -6.5792157213       -2.3749723839       -1.4572575507
 C        -6.7683650623       -3.2896839938       -3.6582144621
 C        -7.9381045365       -2.2644571028       -3.6991677658
 O        -7.6777255844       -1.0903793829       -3.9347704463
 C        -9.4407416091       -2.8192525383       -3.5778691151
 C       -10.4766798123       -1.7079977037       -3.9944563830
 C       -10.9429289169       -0.6625916361       -2.9550280091
 O       -10.7924344019       -0.6890133871       -1.7587800594
 C       -11.6259603721        0.7361334316       -3.4969036237
 C       -10.6216456938        1.7209353987       -2.7697319837
 O       -10.8356389597        2.0130117537       -1.6184692051
 C        -9.2744026662        2.1124007847       -3.4366238998
 C        -8.2817098361        2.2533643400       -2.2922009338
 C        -8.6707358115        2.9217946358       -0.9721143973
 O        -8.9834039297        4.1137129289       -0.9487075094
 C        -8.6483256800        2.1115917861        0.4832301992
 C        -9.7130157034        2.6881996416        1.4650524542
 O        -9.5500388300        3.7097168054        2.1529062819
 C       -11.0834728028        2.0282617288        1.4367421738
 C       -11.8477094361        2.6123554683        2.6159524756
 C       -13.2317326846        3.0935140826        2.2798926253
 O       -13.9419101610        2.5403358443        1.4682783612
 C       -13.7893848233        4.5266243269        2.9545901908
 C       -12.8307123048        5.5378819562        2.1247189339
 O       -11.6482374019        5.3857451222        2.2670721280
 C       -13.2703927464        6.6012439715        1.1173367908
 C       -12.5537209214        7.9392962950        1.4080750673
 C       -11.7020481234        8.4301926456        0.2195009575
 O       -11.0426900307        7.5610126079       -0.4101379281
 C       -11.4955472066        9.9600925195       -0.0891702599
 C       -10.1496232896       10.3076990384        0.7397512629
 O       -10.1969505267       10.9680236423        1.7648753065
 C        -8.8817950863        9.7264051852        0.1182670872
 C        -7.7569332286        9.0936359305        0.9448897663
 C        -8.1943670045        8.1252685968        1.9192609299
 O        -9.3386741280        7.7235118625        1.8813379979
 C        -7.1400617600        7.5196324844        2.8697294453
 C        -6.3527080360        6.3786808477        1.8887593818
 O        -7.0580786930        5.7317981590        1.1489601042
 C        -4.8966524672        6.0640622553        1.9916930097
 C        -6.1789205096        8.5913329901        3.3912156240
 C        -7.7612320762        6.5841595682        3.9881559900
 C       -11.3154342686       10.2510944231       -1.6055254420
 C       -12.6696136665       10.8210230790        0.4723990859
 C       -15.2390517302        4.6449411803        2.5552519514
 C       -13.4654899622        4.6440523351        4.4902120150
 C        -8.8988041625        0.6040436533        0.3391524760
 C        -7.1861015613        2.4633754076        1.0118408325
 C       -11.5895792416        0.8911733219       -5.0577577559
 C       -13.0325736331        0.9860228709       -2.9221870056
 C        -5.8602970196       -2.8305099925       -4.8252918780
 C        -7.2732245339       -4.7816920090       -3.7076395272
 H        -3.9687782598       -3.0192055579       -1.3732783611
 H        -4.0174668731       -3.4568673158       -3.1191439830
 H        -4.5320382471       -4.6462931819       -1.8398957479
 H        -9.5841280627       -3.1765714668       -2.5419016025
 H        -9.4024983056       -3.7572970974       -4.2246204105
 H       -11.4161406395       -2.1587116940       -4.3049261625
 H       -10.1036069526       -1.1709103673       -4.8729463536
 H        -9.3372931498        3.0912899804       -3.8897940940
 H        -8.9611344703        1.4375153080       -4.1705519494
 H        -7.4289086189        2.8149692964       -2.7713620424
 H        -7.7863316611        1.3010759271       -2.0544175666
 H       -11.0028281155        0.9506537966        1.6223192104
 H       -11.5638654173        2.1771166762        0.4314730745
 H       -11.3027069458        3.4684421066        3.0024135515
 H       -11.7946034472        1.9916661425        3.4719754640
 H       -14.3502953105        6.6916542820        1.0859881798
 H       -12.8354443355        6.2375180256        0.1729342408
 H       -11.7789122849        7.7840046180        2.1076083601
 H       -13.1619728827        8.7722080045        1.7877105736
 H        -8.4420591409       10.4899236564       -0.5435421902
 H        -9.2670340398        9.0322282939       -0.7054833889
 H        -7.1662316025        9.9249239392        1.3607496382
 H        -7.0327201348        8.5771938389        0.2289644951
 H        -4.6806662707        4.9817896166        1.9131046222
 H        -4.5255133346        6.2355785643        3.0219487028
 H        -4.3445990882        6.6974423765        1.3129490553
 H        -5.3644278185        8.1741447950        3.9314722711
 H        -6.7395681217        9.1750318652        4.0916002118
 H        -5.8390238492        9.3046386639        2.6900066329
 H        -6.9716744782        5.8882096294        4.3033027325
 H        -8.7158491982        6.1088339638        3.7690957120
 H        -7.9796277367        7.1975993005        4.8445527990
 H       -10.9297804569        9.3465795411       -2.0817614838
 H       -10.5730153914       11.0051037122       -1.8073809473
 H       -12.2202394338       10.4543169189       -2.1609531487
 H       -12.2864194557       11.8815548317        0.3709391717
 H       -12.8206324710       10.7641193171        1.5582754605
 H       -13.6586792564       10.6036246670        0.1035664027
 H       -15.3575141259        4.4693306733        1.4700811402
 H       -15.6331794668        5.6331300318        2.8668155975
 H       -15.7794920962        3.8323886938        3.1060931854
 H       -12.3652699301        4.6815241511        4.6327645537
 H       -13.8505245554        3.7752852214        5.0015199223
 H       -13.8580897090        5.6063974049        4.8103212628
 H        -9.1200050623        0.3040736317        1.3592803639
 H        -8.0142341191        0.0221828200       -0.0722445400
 H        -9.7779799560        0.4032194556       -0.3050697041
 H        -7.0133919617        2.0544150562        2.0291961463
 H        -7.0218581000        3.5188287764        1.1718467874
 H        -6.4005811352        2.0913257483        0.3081504393
 H       -10.6672835899        0.6351503358       -5.5521942272
 H       -11.7970040789        1.9073807261       -5.3887585879
 H       -12.4272626565        0.2593489428       -5.4770282182
 H       -13.5665469140        1.7361649294       -3.4956492297
 H       -13.0042209503        1.1434557065       -1.8776904439
 H       -13.6408735366        0.0734080962       -3.1080899036
 H        -6.2832023191       -3.1397053353       -5.7868894540
 H        -4.8919774110       -3.3068227013       -4.8076724214
 H        -5.7644425561       -1.7533273510       -4.7484867333
 H        -6.3605286206       -5.4002000656       -3.8137630209
 H        -7.7975475751       -4.8910965909       -4.6273745737
 H        -7.8804945774       -5.0263463314       -2.8505799802
 Na       -9.5794011098        5.6066801574        0.8083670971
