117

 C        -6.8002198058       -4.4553985730       -0.2412635657
 C        -7.4509426123       -3.4333791142       -1.1160588129
 O        -8.3720588250       -2.7363683321       -0.7617355580
 C        -6.7419065304       -3.1960692929       -2.5125994696
 C        -7.6550546887       -2.2504665435       -3.3388334320
 O        -7.3332620298       -1.1106361947       -3.5182821586
 C        -9.0332790982       -2.7916169464       -3.8512902138
 C        -9.7808914652       -1.7547440806       -4.5934143661
 C       -10.8729794189       -1.0846479571       -3.5835160433
 O       -10.9334888264       -1.4698515322       -2.4480584454
 C       -11.7085286096        0.2177770776       -3.9331995700
 C       -11.1584637315        1.3086427520       -2.9324874838
 O       -11.8813521309        2.0882515100       -2.3891543133
 C        -9.6313406941        1.4661279367       -2.8700265728
 C        -9.1216605707        2.7095189711       -2.0749619730
 C        -9.5173146044        3.1604476373       -0.6582227970
 O        -9.8977768265        4.3096353721       -0.3972367293
 C        -9.2300703523        2.1953306885        0.5272725175
 C       -10.0614572890        2.5983317575        1.7838215861
 O        -9.8012417683        3.6984537888        2.2870625515
 C       -11.1789449567        1.7600405817        2.3709249302
 C       -12.0949404529        2.6016262628        3.2884944845
 C       -13.1437605003        3.4277994616        2.5444671182
 O       -13.8403695020        3.1050484512        1.6404317791
 C       -13.3982007585        4.9615192597        3.0878776563
 C       -12.4849785537        5.7950733665        2.2008471732
 O       -11.4466621241        6.2200304972        2.7240912819
 C       -12.7190032119        5.9599866741        0.6874761878
 C       -12.7360597665        7.4752731567        0.2606642958
 C       -11.3718619342        8.1719264378       -0.1742032760
 O       -10.4420935930        7.5229366565       -0.5096347482
 C       -11.3199411425        9.7292965273       -0.2455226590
 C        -9.9056237905       10.1778202809        0.3877077157
 O        -9.8485145824       10.8222335329        1.3683971411
 C        -8.6477703321        9.9122910142       -0.4399428386
 C        -7.4670250193        9.6557269332        0.5433039364
 C        -7.6033804026        8.4744444492        1.4798294227
 O        -8.7384174539        8.1018906999        1.7942840864
 C        -6.3374418042        7.7256320403        1.9687293902
 C        -6.1286489621        6.3199837340        1.1083338897
 O        -7.0282721512        5.5076151648        1.0191883423
 C        -4.7911795514        6.1224603220        0.4111710455
 C        -5.0504007272        8.6180526531        1.8111068854
 C        -6.3819039370        7.4181000294        3.5280612555
 C       -11.3407886475       10.2662122509       -1.7229332367
 C       -12.3806320518       10.5530339781        0.6290542038
 C       -14.9048220186        5.2982299229        2.7418394048
 C       -13.0986375608        5.0356819190        4.5815340561
 C        -9.3663005809        0.6237457140        0.2951137344
 C        -7.6960533202        2.3904628147        0.8559508991
 C       -11.5192368553        0.6572721891       -5.3812966725
 C       -13.1780115988       -0.0713242677       -3.7871338225
 C        -5.4132856953       -2.4150959988       -2.3807368383
 C        -6.4331398688       -4.5321905554       -3.2065091091
 H        -7.0105889952       -5.4203292304       -0.7378937843
 H        -7.1353284241       -4.4507561002        0.7920767199
 H        -5.7394313697       -4.3324086449       -0.2016315698
 H        -9.5647779155       -2.9445737275       -2.8758758766
 H        -8.9442033419       -3.6491873826       -4.4381707478
 H       -10.4078191941       -2.1816371070       -5.4062345158
 H        -9.1710567434       -0.8769217795       -4.8746729467
 H        -9.2061339225        1.5635164490       -3.9080237020
 H        -9.1699163058        0.5231173055       -2.4149225084
 H        -9.3462864759        3.5965804662       -2.6723912414
 H        -8.0554142182        2.6807360119       -2.1201123983
 H       -10.8377848333        0.8592427143        2.8882656683
 H       -11.7678618611        1.3841942723        1.5589167552
 H       -11.3952490140        3.2793816677        3.7840183856
 H       -12.6335933812        1.8783175009        3.9932999847
 H       -13.6268771359        5.5222053998        0.2339322898
 H       -11.8886035554        5.5147552561        0.1381153889
 H       -13.2440970961        8.1228220967        1.0425869067
 H       -13.4097017122        7.5552937931       -0.6126050757
 H        -8.2829209984       10.8604852244       -0.8079876041
 H        -8.6800729182        9.1869542535       -1.1991247226
 H        -7.4313798868       10.5825256851        1.1573015429
 H        -6.5104989151        9.5915943236        0.0125736682
 H        -4.4952021558        7.0821909581       -0.0252997809
 H        -4.7736816203        5.3451339758       -0.3093627219
 H        -3.9431419664        5.9290548547        1.0850250586
 H        -4.1684025058        8.1675555917        2.1565128725
 H        -5.2991981721        9.4636197198        2.3894582818
 H        -4.7963247381        9.0253794355        0.8602415138
 H        -5.6779599811        6.6055646819        3.6883406250
 H        -7.4001462483        7.0832782013        3.6976192508
 H        -6.1284001693        8.3305843121        4.0674191936
 H       -10.6880507174        9.6794474047       -2.3579898087
 H       -11.0461792000       11.3245125522       -1.6816098309
 H       -12.3542744665       10.1668125264       -2.0632024802
 H       -12.0470466871       11.6167163712        0.6731880420
 H       -12.4960208781       10.1104390297        1.6157715267
 H       -13.3583366189       10.4818308165        0.2624363853
 H       -15.1558101921        4.9415902272        1.7302842049
 H       -15.0780136115        6.3843698083        2.7431423832
 H       -15.6108484067        4.7296119410        3.3474270493
 H       -12.0420620783        4.7649067894        4.8975744540
 H       -13.6726428063        4.2932455761        5.1547445675
 H       -13.1315153483        6.0535918642        5.0278451984
 H        -9.0022797849        0.0382177834        1.1902230745
 H        -8.8302328165        0.3312341560       -0.5942569659
 H       -10.4204005393        0.3181658761        0.0754895890
 H        -7.2908006201        1.8257917529        1.7011897292
 H        -7.4690025808        3.4088859224        1.1180546475
 H        -7.1238933198        2.1813712299       -0.0641500552
 H       -10.4843981835        0.7792454468       -5.6719097572
 H       -12.0414845313        1.6437144609       -5.5633705435
 H       -12.0541861900       -0.0818147784       -6.0404423410
 H       -13.8137246503        0.6885168424       -4.1713411320
 H       -13.3588698292       -0.4079355219       -2.7767978701
 H       -13.4348497600       -0.8877084860       -4.4622896867
 H        -5.0331883925       -2.1910304234       -3.3541727053
 H        -4.5969031494       -2.9748228714       -1.9033289865
 H        -5.5457487839       -1.4495467142       -1.8675854903
 H        -5.7426093576       -5.0637004870       -2.5884960765
 H        -6.1077922342       -4.2955048282       -4.2327985239
 H        -7.3618819505       -5.1017923615       -3.2535845468
 Na       -9.4083497800        5.9427087962        1.3753399190
