117

 C        -6.1570134353       -4.3466125537       -0.5692276533
 C        -6.9891737244       -3.3564211052       -1.3390785332
 O        -7.8226874804       -2.7019688574       -0.7308478322
 C        -6.6969788702       -3.2130377002       -2.8900145749
 C        -7.7031008818       -2.2398387860       -3.5197720778
 O        -7.4055268617       -1.0686077450       -3.5984638734
 C        -9.0942113037       -2.7904361767       -3.9461424300
 C       -10.1493345494       -1.8322218374       -4.4456072912
 C       -10.9769264385       -0.9942325181       -3.3032611132
 O       -11.1682233231       -1.4995002569       -2.2333690878
 C       -11.5046281829        0.4143985707       -3.7253149303
 C       -10.7203302525        1.6250768834       -2.8621522031
 O       -11.3776626863        2.3332196235       -2.1639858883
 C        -9.1523315895        1.7140850545       -2.8995312199
 C        -8.6329972073        2.8423785624       -2.0244315630
 C        -9.3065084297        3.2002171463       -0.7430610701
 O        -9.9586748225        4.2452958975       -0.7028529195
 C        -9.1695061643        2.2110995389        0.4969108299
 C       -10.0137440602        2.7875048257        1.7182911387
 O        -9.6151240003        3.8354968572        2.2945404534
 C       -11.1021236893        1.9244045922        2.3734336184
 C       -12.0065013614        2.7668901275        3.2738967673
 C       -13.0409462583        3.5551125227        2.4616173088
 O       -13.3044479957        3.3757761946        1.3086998572
 C       -13.5114387119        4.9443088505        3.0460575901
 C       -12.4730899633        5.7192936141        2.1645544298
 O       -11.3203802165        5.9436641632        2.5770942432
 C       -12.8861033535        6.0834020680        0.8031352471
 C       -12.9155772661        7.6052434075        0.8623544949
 C       -11.6458560017        8.2344725829        0.1619279660
 O       -10.7567611800        7.5449905551       -0.1969672741
 C       -11.5375428957        9.8018872625       -0.0456247700
 C       -10.0971448994       10.2481214682        0.5007879405
 O       -10.0127660149       10.8560644869        1.5529288827
 C        -8.8211890898        9.7757741639       -0.3270103037
 C        -7.5406730192        9.6567943623        0.5850130552
 C        -7.6672924864        8.3479216136        1.4693891576
 O        -8.8038906381        7.8946290207        1.6479174595
 C        -6.4055231426        7.5730897952        2.0032557596
 C        -6.2801401357        6.1913100818        1.1817028927
 O        -7.2896833610        5.7300181446        0.6561760385
 C        -4.9915744028        5.4060265219        1.1531131369
 C        -5.1109603223        8.2951717373        2.1018773850
 C        -6.7318301293        7.0936945607        3.4408297562
 C       -11.5435785043       10.0230405726       -1.5990263415
 C       -12.6709136819       10.5756255065        0.6328740707
 C       -14.9619347672        5.1930190596        2.5405743536
 C       -13.3227965952        5.1473427973        4.5450639713
 C        -9.5017570359        0.7538516882        0.1402610554
 C        -7.7098821939        2.2891241294        0.8509737247
 C       -11.3549922030        0.7165321907       -5.2253239763
 C       -13.0984525248        0.3688677830       -3.4203075855
 C        -5.2651893619       -2.6582561936       -2.9393099561
 C        -6.6907802393       -4.6356139765       -3.5987854431
 H        -5.7366594145       -5.0456171208       -1.1895981055
 H        -6.8524320496       -4.8838073608        0.0911765174
 H        -5.4293439988       -3.9628779884        0.0568180610
 H        -9.4248086250       -3.3809039558       -3.0105844152
 H        -8.8515288700       -3.4594495822       -4.7704512618
 H       -10.9615378099       -2.4529865937       -4.8688562256
 H        -9.8155807793       -1.1031497796       -5.2065753943
 H        -8.6565927768        1.7959631593       -3.8771266822
 H        -8.8054105117        0.6839480987       -2.5948015783
 H        -8.6976029306        3.7137209429       -2.6753977612
 H        -7.5691193075        2.7315869710       -1.7911870419
 H       -10.6961335161        1.0454994253        2.8620233488
 H       -11.7844405673        1.5708481037        1.6393755146
 H       -11.4087620921        3.5199619138        3.7882159890
 H       -12.5806656613        2.1665751808        4.0610863480
 H       -13.8364432854        5.6901535947        0.4942671814
 H       -12.2514387248        5.7319296145        0.0096343849
 H       -12.9443572496        7.9575733002        1.9499004975
 H       -13.8033820936        8.0542003204        0.3508515882
 H        -8.6594887096       10.5442230100       -1.0457493699
 H        -8.9328590539        8.8321838483       -0.7129468344
 H        -7.4865065216       10.4831841327        1.2694226409
 H        -6.5873586301        9.6805691970        0.0941763585
 H        -4.2373682458        6.0925633278        0.7418940880
 H        -5.0330113492        4.5007995621        0.6671446568
 H        -4.5800118244        5.1688512069        2.1538350710
 H        -4.3572165960        7.6369714297        2.5975697365
 H        -5.2535609778        9.1396059584        2.8143403251
 H        -4.7388218623        8.7147166098        1.1258611588
 H        -5.7813382373        6.5997666332        3.7005096144
 H        -7.4847823772        6.2882397590        3.3518355040
 H        -7.0014927935        7.9231376941        4.1427173880
 H       -10.7154196620        9.5983723113       -2.1384383580
 H       -11.5287678494       11.1126193403       -1.6852323132
 H       -12.4832525192        9.6601582823       -1.9841274898
 H       -12.4897311602       11.5976350721        0.5411547430
 H       -12.6058253057       10.4718244895        1.7422550162
 H       -13.6156561601       10.2957872677        0.3013857273
 H       -15.0400460863        4.7119047224        1.5756966489
 H       -15.1774243801        6.2500577503        2.4478940211
 H       -15.7575016109        4.8308976633        3.1480353339
 H       -12.2796493918        5.3321787132        4.8456999296
 H       -13.6422813975        4.3017538113        5.1800825710
 H       -13.8558732787        5.9749979864        4.8546205823
 H        -9.5648454527        0.2096430625        1.1148186250
 H        -8.7579755627        0.2638665603       -0.4210359880
 H       -10.5489762984        0.6572259755       -0.1704685245
 H        -7.5179483556        1.6626120169        1.7194375391
 H        -7.2653021214        3.2479425091        1.1385872047
 H        -7.1510409922        1.9167256128        0.0041811928
 H       -10.3218229694        1.0421441579       -5.4162901571
 H       -12.0041618605        1.5796301773       -5.5332380257
 H       -11.6147860657       -0.1525183452       -5.8381238041
 H       -13.5578569445        1.3609970565       -3.5357992158
 H       -13.2001888885       -0.1939334575       -2.4493303701
 H       -13.6381529005       -0.2862187040       -4.1026314276
 H        -4.9242186618       -2.5609332080       -3.9449137162
 H        -4.5579843861       -3.2972876057       -2.4203042261
 H        -5.2214325698       -1.6945284434       -2.4396273201
 H        -5.8584638556       -5.1815642520       -3.1885371418
 H        -6.4231560721       -4.4815091188       -4.6692508177
 H        -7.6808074820       -5.0706413098       -3.4136468407
 Na       -9.6415917623        5.7083288585        0.9518321190
