117

 C        -6.0060394447       -4.4048623204       -0.6132108600
 C        -6.9306290632       -3.4258963474       -1.4276557306
 O        -7.7144756717       -2.6808593872       -0.8578192366
 C        -6.6812396949       -3.1997187295       -2.9306106185
 C        -7.7356149584       -2.1571702213       -3.4666848939
 O        -7.4926556464       -0.9655962182       -3.6501980118
 C        -9.1518277282       -2.7542468423       -3.7972064761
 C       -10.1292203078       -1.7749652443       -4.3769566786
 C       -10.8872036889       -0.9796704505       -3.2613975228
 O       -11.1033646222       -1.4673073593       -2.1671307633
 C       -11.4173200748        0.4082656639       -3.6714668725
 C       -10.6678154222        1.4074964180       -2.8399693462
 O       -11.2529347735        2.2727763955       -2.1869961656
 C        -9.1401987582        1.5991021514       -2.9455695438
 C        -8.5352047747        2.8123299829       -2.1156731890
 C        -9.3944784339        3.1845303596       -0.8411415849
 O        -9.9260266931        4.2345373110       -0.7014270445
 C        -9.1750245067        2.1669336499        0.4768116596
 C        -9.9791134712        2.7147402755        1.7057901818
 O        -9.6563074467        3.7710291465        2.2091183798
 C       -11.0675288693        1.9009152290        2.3515041215
 C       -11.9353744504        2.8296674761        3.2178757353
 C       -13.0400863316        3.5220148922        2.4236151779
 O       -13.3425992200        3.1393367194        1.2931944640
 C       -13.5196784176        4.9240804227        2.9786669143
 C       -12.4801542245        5.7502565975        2.1479474839
 O       -11.3737511981        6.0029599629        2.5941549441
 C       -12.9187462037        6.2807640307        0.8091282980
 C       -12.9227713152        7.7803453677        0.8386047835
 C       -11.6313055280        8.3148097666        0.1749812918
 O       -10.7768574347        7.4962563085       -0.1743389892
 C       -11.5171859424        9.8504015819       -0.0903252934
 C       -10.0940536596       10.1834631654        0.4828769271
 O       -10.0637583265       10.8002448909        1.5562262696
 C        -8.8176254448        9.8375186059       -0.2135961994
 C        -7.6061890376        9.5768609852        0.7278656700
 C        -7.8037101905        8.3119502285        1.5097787345
 O        -8.8999728190        7.8674912368        1.6234461577
 C        -6.5032548273        7.4539352494        2.0828200667
 C        -6.3740589059        6.1544485543        1.1878687674
 O        -7.1998246835        5.7180072488        0.4320963239
 C        -5.0515423048        5.4126155615        1.3108278712
 C        -5.1743829599        8.2686811311        1.9677839478
 C        -6.8957569549        7.0392571834        3.5837725805
 C       -11.6829822634       10.0871834091       -1.6376486674
 C       -12.5228709308       10.6839179897        0.6590581955
 C       -15.0097683712        5.0957209386        2.7168633067
 C       -13.3758880820        5.0966549636        4.5101870726
 C        -9.5356158067        0.7722430007        0.1388349077
 C        -7.6647387999        2.2544643974        0.8557884564
 C       -11.2658760341        0.7819885290       -5.1597564963
 C       -12.9509514119        0.5802923683       -3.2806229874
 C        -5.2802625281       -2.6044942902       -3.1579173574
 C        -6.9037260650       -4.6345583175       -3.6093453860
 H        -5.3302542996       -4.9801441776       -1.2061986469
 H        -6.5188794612       -5.0696167112        0.0690636835
 H        -5.3696962613       -3.7817596702        0.0304792941
 H        -9.4225322500       -3.1987853648       -2.8782146922
 H        -8.9485583742       -3.5075363515       -4.5511254164
 H       -10.8616617600       -2.1860949905       -5.0838052713
 H        -9.6059719080       -0.8930363545       -4.8597230025
 H        -8.8471056117        1.6982795306       -4.0524539705
 H        -8.5798076329        0.6429683221       -2.7397209908
 H        -8.5482346004        3.6532788997       -2.7436864344
 H        -7.4937233744        2.6265592897       -1.8045220261
 H       -10.6455362838        1.1452874301        3.0017197460
 H       -11.7242065543        1.3620122762        1.6599551717
 H       -11.2606135728        3.6242557762        3.6382396144
 H       -12.4146472141        2.2920007461        4.0751787256
 H       -13.8668043213        5.8979870278        0.4520217992
 H       -12.2426536633        5.9218142725        0.0072431162
 H       -12.9144199636        8.1235851194        1.8848333186
 H       -13.7808464010        8.2728323139        0.2954663945
 H        -8.6060747156       10.6786159888       -0.8532625699
 H        -8.8766232642        8.9007243464       -0.7327431759
 H        -7.4485184389       10.3299941404        1.4924111967
 H        -6.6024718879        9.5796923407        0.2244412520
 H        -4.2438681560        5.9178725294        0.8432816486
 H        -5.0931523096        4.3630355780        1.0085583730
 H        -4.7422894237        5.3549625091        2.3551450424
 H        -4.2583851386        7.7443514792        2.2292710515
 H        -5.2456118788        9.0787125860        2.6710789938
 H        -5.1331005232        8.6946839255        0.9852619302
 H        -6.2079672843        6.2232857156        3.8438784596
 H        -7.9442399643        6.6855959143        3.6045961949
 H        -6.6809445824        7.9406899959        4.2201832152
 H       -10.9098969680        9.5714592768       -2.1847077066
 H       -11.6104924286       11.1421586994       -1.8205581164
 H       -12.6836677612        9.7519295543       -1.9497417770
 H       -12.2512646638       11.6881786626        0.6663797953
 H       -12.5180387746       10.4888809904        1.7291965367
 H       -13.5434046844       10.5766766570        0.2257431283
 H       -15.2995469510        4.7166364177        1.7344972473
 H       -15.3005668862        6.1461217712        2.8378828077
 H       -15.6147160683        4.6615877379        3.4934295232
 H       -12.3651411494        5.3368006838        4.9383909528
 H       -13.7834037632        4.2419879632        5.1563851431
 H       -14.0533243936        5.9292413081        4.7823202032
 H        -9.2569287132        0.0089706988        0.8744795718
 H        -8.9280307627        0.4917319622       -0.7395920498
 H       -10.6299628897        0.6893419390        0.0466360806
 H        -7.5754495347        1.6878648060        1.7860191576
 H        -7.2385845105        3.2569064167        1.1295615472
 H        -7.0182356582        1.8224710981        0.1205511766
 H       -10.1761167399        1.1491795308       -5.3181063371
 H       -11.8941577589        1.6674499177       -5.3862184667
 H       -11.5014732032       -0.0317776225       -5.8505841187
 H       -13.1279217061        1.6659075705       -3.0971210857
 H       -13.1608158166       -0.1132104701       -2.4525430489
 H       -13.6177077571        0.2615947373       -4.0531699998
 H        -5.0777052572       -2.4785850440       -4.2401148211
 H        -4.5037094292       -3.1963997958       -2.7176076538
 H        -5.2351698383       -1.6541425930       -2.6631645624
 H        -6.0556350017       -5.2285393918       -3.2904259922
 H        -6.7643754928       -4.5181720474       -4.6701697794
 H        -7.8811740197       -4.9767739071       -3.2850913071
 Na       -9.5565004891        5.7528415406        1.0205703764
