117

 C        -5.7631341111       -4.2549029448       -0.8618213968
 C        -6.7359596429       -3.3467313384       -1.4792459667
 O        -7.5453875464       -2.7009658298       -0.8187728144
 C        -6.6526195531       -3.2191124598       -3.0821544375
 C        -7.8270094366       -2.2175554010       -3.4693311175
 O        -7.5400078928       -1.0484598397       -3.6401207772
 C        -9.3000483833       -2.7782479342       -3.5652126832
 C       -10.0404941396       -1.6979893153       -4.3351927142
 C       -10.8616411065       -0.8251828199       -3.2558485494
 O       -11.0256593988       -1.2499753706       -2.1486114998
 C       -11.4319874228        0.6276803537       -3.6313947396
 C       -10.5181101546        1.6144186791       -2.7756245009
 O       -10.9861112384        2.1375724230       -1.8053177698
 C        -8.9907756297        1.6239778458       -2.9672814473
 C        -8.4105727448        2.7696414941       -2.2128322425
 C        -9.2043331758        3.0480253861       -0.8988403808
 O        -9.5885724303        4.2201274474       -0.6934846672
 C        -9.1446010053        2.0581380711        0.3807198109
 C        -9.9527075915        2.6478067453        1.5751412173
 O        -9.5607109881        3.7444056323        2.0206782001
 C       -10.9881742260        1.8212856593        2.2810119723
 C       -11.8919025597        2.6454461170        3.2562748253
 C       -13.0815896644        3.2875003792        2.5298197825
 O       -13.5984180398        2.8194501412        1.5642109963
 C       -13.6056926945        4.7414454691        3.0306271379
 C       -12.7542596542        5.8375819649        2.1991446926
 O       -11.6250845600        6.1134355680        2.6147956175
 C       -13.2603544703        6.4811153137        0.9017624289
 C       -13.0096808498        8.0052035646        0.6948746461
 C       -11.6408241489        8.4463003731        0.0869932789
 O       -10.8144994009        7.7061725550       -0.3570254095
 C       -11.4646141572       10.0285494050       -0.1131577289
 C       -10.0389399875       10.3913087786        0.5269483075
 O        -9.9163799599       10.7505001072        1.6645023748
 C        -8.7743591249        9.9217265202       -0.2144917239
 C        -7.7021849452        9.5374780494        0.8655244645
 C        -7.9659050210        8.1691848426        1.5470598529
 O        -9.1604970135        7.8910326493        1.8448313884
 C        -6.6878263761        7.3829297813        2.0516125316
 C        -6.4033339324        6.0693063480        1.1981479397
 O        -7.1281526118        5.7439219987        0.2584343741
 C        -5.2037931953        5.2853484291        1.6268149543
 C        -5.4069109247        8.2631385044        2.0030726268
 C        -7.0158179054        6.9787694741        3.5127504792
 C       -11.5073960143       10.2578775435       -1.6445339646
 C       -12.5178785773       10.8968247727        0.6456239349
 C       -15.0756752835        4.8662289577        2.6697515044
 C       -13.2022834865        4.8893824139        4.5104615991
 C        -9.5038392957        0.5842688227        0.1209337174
 C        -7.6981434022        2.1527798237        0.7609787615
 C       -11.2914142771        0.9074118134       -5.1675665880
 C       -12.9569378381        0.6143236806       -3.1323260406
 C        -5.3064593841       -2.6794498821       -3.6946488060
 C        -6.8779793913       -4.6189236582       -3.7019691866
 H        -4.9296969343       -4.5399759220       -1.5325331225
 H        -6.2810103616       -5.2310386213       -0.5367590251
 H        -5.2942778631       -3.8484794530        0.0580117568
 H        -9.6023877980       -2.8173055019       -2.4798434318
 H        -9.3315176359       -3.7838800982       -3.9816556793
 H       -10.8398167068       -2.1510350847       -4.9135529481
 H        -9.5202898432       -1.0558969994       -4.9570830401
 H        -8.7567327719        1.5823539224       -3.9853741476
 H        -8.4640222931        0.7605950466       -2.6140200037
 H        -8.3760880769        3.7070347634       -2.8671532342
 H        -7.4029024895        2.4586775397       -1.9146342025
 H       -10.5424950984        1.0524576077        2.9640271178
 H       -11.6367835713        1.2884737435        1.5511760262
 H       -11.2762396782        3.3742616141        3.7440260947
 H       -12.3048349437        2.0442137216        4.0524468734
 H       -14.3631855880        6.4032962817        0.8092560220
 H       -12.9294744273        5.8611249840        0.0589331953
 H       -13.2889856929        8.5546148053        1.5823344162
 H       -13.6165332065        8.2907955197       -0.1080273197
 H        -8.2910508985       10.8236785909       -0.7270309049
 H        -8.9075881844        9.0409559800       -0.9179742624
 H        -7.6647922764       10.4258926341        1.5837919986
 H        -6.6973202592        9.5612987103        0.4510826109
 H        -4.3123609323        5.4822844816        0.9467847593
 H        -5.3908722463        4.2313846419        1.6331699119
 H        -4.8505603147        5.5043046988        2.6535641060
 H        -4.8360643140        7.8596813395        2.7927508217
 H        -5.4888236759        9.2910349904        2.2371741220
 H        -4.8804395970        8.0978065972        1.0856895571
 H        -6.7988210064        5.9604055284        3.7777448648
 H        -8.0690660562        7.1269408464        3.5694867342
 H        -6.4966950014        7.6347545396        4.1542369321
 H       -10.8630476731        9.5156589976       -2.1368443101
 H       -11.2602155349       11.2893411767       -1.9685479828
 H       -12.5514002482       10.1120521928       -1.9090837523
 H       -12.4007391036       12.0181182200        0.5960014928
 H       -12.3686275763       10.7653634644        1.7579129684
 H       -13.5315611551       10.6996533460        0.3019532965
 H       -15.2043376751        4.7288114886        1.5844395291
 H       -15.5016386957        5.8166351372        3.0030683799
 H       -15.7032636387        4.1873961682        3.2672650875
 H       -12.1137000212        4.8418511502        4.6681835510
 H       -13.6588372879        4.1266440803        5.1280188180
 H       -13.5796731009        5.7587542401        4.9909359212
 H        -9.5499016335       -0.0658282852        1.0022630030
 H        -8.7264161282        0.1661036363       -0.4501815284
 H       -10.5013481121        0.5564530522       -0.3014875659
 H        -7.2758807006        1.6974912176        1.6644448491
 H        -7.3792520918        3.1652997183        0.7036325024
 H        -7.1531298758        1.7034362167       -0.1119146789
 H       -10.3923950794        0.5639085710       -5.5376855354
 H       -11.3587503520        1.9632004683       -5.3730249616
 H       -12.0871700364        0.4085165470       -5.7211333711
 H       -13.2787076811        1.6372508102       -3.0429161767
 H       -13.0675025635        0.1593323676       -2.1391195326
 H       -13.5465768749        0.0298166288       -3.8554887259
 H        -5.4412798249       -2.6742390013       -4.7633989082
 H        -4.4717992524       -3.3683289946       -3.4192865256
 H        -5.0108377389       -1.6576318270       -3.3611342945
 H        -5.9313852952       -5.0894135888       -3.6915193193
 H        -7.1532004751       -4.4812142659       -4.7346827097
 H        -7.6120562717       -5.0690326859       -3.0857824776
 Na       -9.5750393925        5.7984336871        1.0609016022
