117

 C        -8.1772276617       -4.5487661992        0.0911438742
 C        -8.1626056570       -3.2220448052       -0.4918794139
 O        -8.9513920453       -2.3822143773       -0.0981056334
 C        -7.1807510673       -2.8173570729       -1.6393808829
 C        -7.8709287363       -1.8968211627       -2.6909010673
 O        -7.7757505311       -0.6960655914       -2.6821452463
 C        -8.6910349611       -2.5930269117       -3.8817022371
 C        -9.6492676763       -1.6514895761       -4.5159520065
 C       -10.8748438338       -1.4312352736       -3.6003189798
 O       -11.3224164986       -2.2130949815       -2.7925107023
 C       -11.7332095243       -0.0803731382       -3.9494840534
 C       -11.2245041095        1.1553300962       -3.0988170744
 O       -12.0345639675        1.6873600450       -2.3405117517
 C        -9.6942774442        1.4317446095       -3.0619739873
 C        -9.3126828435        2.6824673295       -2.3178556442
 C        -9.6680480535        2.9987664893       -0.8638095704
 O        -9.8139949141        4.1674752284       -0.5690417450
 C        -9.3636240658        1.9663862431        0.4230624016
 C       -10.1895697384        2.4573626933        1.5965212235
 O        -9.6717255538        3.3298921790        2.3281048486
 C       -11.5570661853        1.8853503110        1.9123187268
 C       -12.2384042533        2.6563088832        3.0827662097
 C       -13.2653056371        3.6521338119        2.5770596417
 O       -13.9884413369        3.5093682879        1.6598042753
 C       -13.1930353952        5.2246355100        3.1583737201
 C       -12.0155929198        5.8004378153        2.3064295045
 O       -10.9587708626        5.9565334454        2.8862196265
 C       -12.1624871614        5.8441861932        0.8003595204
 C       -12.3601981796        7.3114148951        0.3723826349
 C       -11.0646532659        7.9187707801       -0.2038967983
 O       -10.0685485457        7.3189333408       -0.3578258972
 C       -11.1091853555        9.4590898435       -0.6975581736
 C        -9.9280783542       10.1632971026        0.0521373982
 O       -10.0456043881       10.7627502460        1.0825432054
 C        -8.4785683569        9.9838148415       -0.4902146783
 C        -7.4320151108        9.9333549659        0.6253796320
 C        -7.4414033707        8.5288194532        1.3897509208
 O        -8.4130975871        7.9208775961        1.7289195504
 C        -5.9747630127        8.0288882925        1.8258505513
 C        -5.7050834616        6.8883391012        0.7489883447
 O        -6.5051472033        5.9622473105        0.6004685401
 C        -4.5916101192        7.0498529449       -0.2775874694
 C        -4.8669565213        9.0759260158        1.7668728652
 C        -6.1211125548        7.3467111507        3.2179524309
 C       -11.0436800445        9.4098848290       -2.2483809723
 C       -12.4605178898       10.1268488902       -0.3155400757
 C       -14.5151517180        6.0114955620        2.9261891235
 C       -12.7594849189        5.1880341239        4.6063118903
 C        -9.7907937365        0.4901508579       -0.0165090517
 C        -7.8959158326        2.0445029338        0.6984794320
 C       -11.5539334349        0.3385198745       -5.4381301889
 C       -13.2583877013       -0.4728957200       -3.6312617059
 C        -6.0601187087       -2.0907924869       -0.8973881767
 C        -6.7121654455       -4.1071961030       -2.3766224308
 H        -8.6262891895       -5.3017491382       -0.5804547526
 H        -8.8236529826       -4.4969757178        0.9800189439
 H        -7.1383805982       -4.8162607870        0.3078759185
 H        -9.2476442214       -3.4905969917       -3.5465969274
 H        -7.9923618973       -2.9496260727       -4.6892520435
 H       -10.0211912271       -2.0310983256       -5.4773968982
 H        -9.2087633660       -0.6345599064       -4.7092082616
 H        -9.2881595440        1.5107369792       -4.1286333805
 H        -9.2649425518        0.5170779936       -2.6309100803
 H        -9.7987930287        3.4334964079       -2.8988170859
 H        -8.2420888870        2.8108857752       -2.4222571437
 H       -11.4979537450        0.8250992440        1.9551672285
 H       -12.1828621352        2.0706022081        1.0318656091
 H       -11.4129288172        3.2244551019        3.5892876663
 H       -12.6485162808        1.9658877225        3.8666713477
 H       -13.0568013662        5.3364690768        0.4837549638
 H       -11.2401625135        5.5155867101        0.3004235871
 H       -12.7318821466        7.9229094137        1.2100129920
 H       -13.2046837592        7.3907682074       -0.3960007787
 H        -8.2104396649       10.7777052862       -1.1552188624
 H        -8.3163407841        9.2021959273       -1.1757998776
 H        -7.6000283177       10.6380247236        1.4228573414
 H        -6.4449001692       10.0153394173        0.1425705324
 H        -5.0714433418        7.3059195303       -1.2286362259
 H        -4.1284832757        6.1795242180       -0.5962643599
 H        -3.8267973044        7.7743361172        0.0744858431
 H        -3.8956950269        8.7618279321        2.0993223246
 H        -5.0534243084        9.9342473346        2.3663415204
 H        -4.7743937612        9.4266106109        0.7729466591
 H        -5.1901882947        6.8774695020        3.3391752649
 H        -6.7896043259        6.5592877730        2.9657957262
 H        -6.4906116283        7.9459777566        4.0388151664
 H       -10.0948029763        8.9811165760       -2.5441708937
 H       -11.1651120470       10.4253154186       -2.6375062935
 H       -11.8277124882        8.6998365067       -2.5785783179
 H       -12.4163918277       11.2115148503       -0.4135807275
 H       -12.5918422538       10.1052900644        0.7625353522
 H       -13.2013934087        9.6591490411       -0.8657291173
 H       -14.5557991037        6.1632429385        1.8240204830
 H       -14.5277694336        6.9725005860        3.4927112366
 H       -15.4588839075        5.5350868916        3.2006692863
 H       -11.6533488890        5.0327852372        4.8034704466
 H       -13.3687185610        4.4534076779        5.2084089119
 H       -13.0216640066        6.1496121776        5.0950671343
 H       -10.1819628254       -0.0116215161        0.8981594051
 H        -9.0808876629       -0.1340422411       -0.4943244586
 H       -10.7394496912        0.5321198381       -0.5751588257
 H        -7.5691225589        1.5117294746        1.5815575714
 H        -7.5583223748        3.1013344011        0.7996379816
 H        -7.3916763881        1.6510100972       -0.1593409266
 H       -10.5659340841        0.7270931724       -5.6806748422
 H       -12.1761120115        1.2176445206       -5.6225711626
 H       -11.8290804771       -0.4282907570       -6.1095240518
 H       -13.7284371837        0.3059069744       -3.0470659076
 H       -13.4255037395       -1.3872730300       -3.0619109278
 H       -13.7686963206       -0.6130570955       -4.5248209896
 H        -5.1889557177       -1.7365515515       -1.4783946582
 H        -5.6281928292       -2.6505487722       -0.0765568126
 H        -6.4920618903       -1.2498662110       -0.3469004041
 H        -6.0611943565       -4.6837345179       -1.7422402164
 H        -6.0442012640       -3.9003908199       -3.1890805281
 H        -7.5291816081       -4.7306406216       -2.7015532041
 Na       -8.9975910087        5.6713766703        1.3515936411
