117

 C        -7.5458257612       -4.5722509661        0.0085723427
 C        -7.8429522531       -3.2975255083       -0.9128684049
 O        -8.7978391278       -2.5925144334       -0.6519205581
 C        -6.8824802076       -3.0014155840       -2.1462130654
 C        -7.7128679287       -2.1539852184       -3.0991552595
 O        -7.4620809144       -0.9519374784       -3.1285224173
 C        -8.8589110411       -2.7396140113       -3.8978407973
 C        -9.7272824959       -1.7332356457       -4.5852932934
 C       -10.8388653057       -1.1725641757       -3.6178945934
 O       -11.0051514079       -1.8094657213       -2.5997561738
 C       -11.7777704466       -0.0674791913       -4.0009395132
 C       -11.4422336492        1.2081780288       -2.9809229037
 O       -12.2176137736        1.9825756507       -2.4907867590
 C        -9.8848489105        1.4060414860       -2.8370120582
 C        -9.4307234671        2.7015919009       -2.1864018266
 C        -9.6351073196        3.0398031707       -0.6926257329
 O        -9.7340945443        4.2224026672       -0.4475391851
 C        -9.3662618210        2.0791644382        0.5540657941
 C       -10.2193510871        2.6098363282        1.7874216368
 O        -9.9872520329        3.6482142863        2.3389095241
 C       -11.4821971801        1.7160404735        2.1907248188
 C       -12.3133795884        2.4278351892        3.3044439113
 C       -13.3255671628        3.4314637728        2.6543445108
 O       -14.2122341103        2.9568778357        1.9045245558
 C       -13.2493230006        4.9208868535        2.9536254315
 C       -12.1298338850        5.6360130857        2.0115296828
 O       -11.1028421058        6.0305613161        2.4999537852
 C       -12.4669817032        5.8170879165        0.5642239093
 C       -12.6285660532        7.2747485608        0.1421170529
 C       -11.3231053253        8.0287678060        0.0266839197
 O       -10.2418590956        7.3661324055       -0.0322058776
 C       -11.1940501608        9.5456135929       -0.2401431869
 C        -9.7490611284       10.1583477277        0.3067348505
 O        -9.7244500653       10.8938466326        1.3027782010
 C        -8.4467457659       10.0913492835       -0.5092978755
 C        -7.2500416108        9.9382485840        0.4382644215
 C        -7.3124061699        8.6099199600        1.3754538485
 O        -8.4150260830        8.1765869660        1.6460845189
 C        -5.9668741921        7.9751394450        1.9099799235
 C        -5.8921832672        6.7715629597        0.9539451279
 O        -6.7201928890        5.8707125924        0.9742288641
 C        -4.8185588311        6.7876509770       -0.1297619771
 C        -4.7067368491        8.8998424632        1.9055154916
 C        -6.3280243786        7.6034737358        3.3631528589
 C       -11.1921194686        9.5178437216       -1.8528638957
 C       -12.3486978092       10.3702928268        0.2985519183
 C       -14.6155955929        5.6096065212        2.8386403487
 C       -12.8404685930        5.2382354649        4.3859514714
 C        -9.5655844375        0.6857332950        0.1374030512
 C        -7.9227113878        2.3888782241        0.9746471028
 C       -11.5088754561        0.4722283911       -5.4819689683
 C       -13.2555195387       -0.5281772808       -3.9840387281
 C        -5.6986675019       -2.2639668413       -1.5347209038
 C        -6.3635791332       -4.2917592640       -2.7855590764
 H        -8.4261663363       -5.1987877771        0.0126807238
 H        -7.4603260558       -4.2201491120        1.0484221005
 H        -6.6463139789       -5.1736357440       -0.2261944460
 H        -9.3889553548       -3.3150556741       -3.1563978138
 H        -8.4412793430       -3.3879448537       -4.7143509622
 H       -10.2522243799       -2.1818490394       -5.4793543174
 H        -9.1365858692       -0.8688184739       -4.8935813093
 H        -9.4511109412        1.4287866136       -3.8794913310
 H        -9.5344689814        0.5119657485       -2.2805394990
 H        -9.8995881872        3.5189874866       -2.7826230323
 H        -8.3963316569        2.8339358991       -2.3405739209
 H       -11.1030942700        0.7692340140        2.5301776532
 H       -12.1148741769        1.3862941388        1.3824781532
 H       -11.4845885956        2.8453403202        3.9580409852
 H       -12.9268139267        1.6449741735        3.7739375849
 H       -13.3686774529        5.2594577425        0.3360374950
 H       -11.5675662611        5.4667461464        0.0465102159
 H       -13.3739989181        7.7484019011        0.8449675947
 H       -13.0963523142        7.4203924104       -0.8638242910
 H        -8.3061613762       10.9421877520       -1.0913336885
 H        -8.4071466906        9.3218440895       -1.2715882555
 H        -7.1492643820       10.8678082845        1.0213998387
 H        -6.3560179215        9.7295748375       -0.1503307541
 H        -5.3757584581        6.8104151908       -1.0586374281
 H        -4.3177544572        5.7937901906       -0.2856812525
 H        -4.1019964887        7.5681268903       -0.1192837370
 H        -3.8165189982        8.3806638427        2.1561817956
 H        -4.8450020068        9.6123360772        2.6970070474
 H        -4.5640784559        9.4768452717        1.0344860729
 H        -5.3737029947        7.2839881464        3.7424478119
 H        -7.0847579730        6.8429242707        3.3465746787
 H        -6.5505817685        8.4912814457        3.8998188586
 H       -10.4695238938        8.7606996270       -2.1745649092
 H       -10.9315668758       10.5039942117       -2.2063655818
 H       -12.2061499953        9.3140522422       -2.1831823925
 H       -12.2416616700       11.3838066824        0.0320026197
 H       -12.4718315249       10.2326488207        1.3669680384
 H       -13.2658328004       10.1179343285       -0.2567511833
 H       -15.3002407635        5.1241266898        2.1161758113
 H       -14.5623137834        6.6662487204        2.5210094657
 H       -15.0593613090        5.5899047540        3.8770417282
 H       -11.8889215367        4.7244967841        4.6534858990
 H       -13.5896370757        4.9568612619        5.1831733420
 H       -12.7144539178        6.3131844441        4.6344825911
 H        -9.4957655327        0.0976853357        1.0181929546
 H        -8.6997776855        0.2628490952       -0.4497148912
 H       -10.4543373862        0.5727411134       -0.4735012845
 H        -7.5752823143        1.8133914291        1.8240621454
 H        -7.7781674289        3.4337496985        1.1786941216
 H        -7.2220841345        2.0466653877        0.2143138791
 H       -10.4399446697        0.3674721817       -5.7584864140
 H       -11.8286070340        1.4931488547       -5.5809279870
 H       -11.9889757900       -0.1256672714       -6.2637801954
 H       -13.9543003336        0.2291967700       -4.2488556175
 H       -13.5344844616       -0.7453261784       -2.9946419163
 H       -13.3531376284       -1.4144915796       -4.6091433825
 H        -4.8985721275       -1.9906510586       -2.2425819734
 H        -5.2431499453       -2.9471124921       -0.8060602509
 H        -5.9018868638       -1.3294638932       -1.0242237728
 H        -5.5999068755       -4.7363355722       -2.1139922099
 H        -5.8894952866       -4.0332328498       -3.7261868665
 H        -7.1791249904       -4.9771788426       -2.9806573639
 Na       -9.1948437051        5.9459786426        1.3426783382
