117

 C        -7.3861782545       -4.4861606913       -0.0552658086
 C        -7.8881649347       -3.3713549168       -0.9457337907
 O        -8.7699453806       -2.6042132641       -0.6309960664
 C        -6.8705155763       -3.1005114778       -2.1448230815
 C        -7.6322624264       -2.0813384785       -3.1029569029
 O        -7.3143309187       -0.9157958509       -3.2431004262
 C        -8.8396752167       -2.7512835936       -3.9036318294
 C        -9.7792937455       -1.8062241512       -4.5902964032
 C       -10.8387715275       -1.2887968956       -3.5643777677
 O       -10.9005017046       -1.7885847720       -2.4354290691
 C       -11.7301928547        0.0013384988       -3.9662886458
 C       -11.3949328507        1.1713321810       -3.0492926910
 O       -12.2189696768        1.9360467508       -2.5419928043
 C        -9.9414536810        1.3526355141       -2.8123261229
 C        -9.4380633903        2.6782962636       -2.1418492379
 C        -9.5969214396        3.1870542925       -0.6972808340
 O        -9.7868395976        4.3489254455       -0.4287638139
 C        -9.3160039531        2.0435238801        0.5446303006
 C       -10.2089400725        2.5399192286        1.7158751520
 O        -9.9912694612        3.5644861352        2.3158826104
 C       -11.4109590235        1.7008871453        2.1868405075
 C       -12.2196865648        2.4153728644        3.3112260399
 C       -13.2483376454        3.4369425494        2.6448226995
 O       -14.1645354151        3.0008504270        2.0060003020
 C       -13.2458753703        5.0053183462        2.9891398922
 C       -12.2432896588        5.6732848553        2.0002047549
 O       -11.2740598073        6.2106929001        2.4957038529
 C       -12.5551504145        5.8120743627        0.4812528858
 C       -12.6173530010        7.3270767778        0.1903305236
 C       -11.2398680879        8.0296008975        0.0615278259
 O       -10.2315978245        7.4214899956       -0.1001496387
 C       -11.1753217955        9.6314066480       -0.2313392599
 C        -9.8490873867       10.1763101535        0.3000877427
 O        -9.8308696523       10.8148986288        1.3394219812
 C        -8.5037748623        9.9531528052       -0.5035975031
 C        -7.2595412475        9.8882994061        0.3779939025
 C        -7.2894356212        8.6619635696        1.3344659384
 O        -8.3566988094        8.1882502025        1.6070783991
 C        -6.0125627891        7.9862496835        1.9767509252
 C        -5.9671830711        6.6675194520        0.9578426409
 O        -6.8293440626        5.8338434662        0.9721401339
 C        -4.8534571693        6.6323885229       -0.1513473156
 C        -4.8091346284        8.8781862393        2.0427521623
 C        -6.2972993960        7.6158169784        3.4734991174
 C       -11.2338458243        9.6878261941       -1.7907698621
 C       -12.2842612361       10.4525786876        0.3863462680
 C       -14.6526499601        5.4808871322        2.6424936738
 C       -12.7660966838        5.1946713039        4.4796275969
 C        -9.5348427459        0.5977435142        0.1381113448
 C        -7.8598035769        2.3601666018        0.9978650720
 C       -11.4668639578        0.5484421206       -5.4328281136
 C       -13.2875826339       -0.3341038417       -4.0073463380
 C        -5.6484999209       -2.3429681816       -1.6682194187
 C        -6.4009032683       -4.3270302201       -3.0136288692
 H        -8.2042969196       -5.3297707367       -0.0743253194
 H        -7.2437080583       -4.2037894798        0.9789667179
 H        -6.4207114103       -4.9382689444       -0.4428804735
 H        -9.3716936012       -3.2330200050       -3.0935424684
 H        -8.4783668130       -3.4172839974       -4.5847594768
 H       -10.2734895701       -2.2322067461       -5.4750039760
 H        -9.3126687984       -0.8500637017       -4.8073568799
 H        -9.4996996075        1.4461854884       -3.8199821871
 H        -9.6056290588        0.4037128432       -2.3096455917
 H        -9.8425970729        3.4552661415       -2.8115409779
 H        -8.3724862072        2.7374796679       -2.3354463006
 H       -11.0133309689        0.6898701555        2.4839402258
 H       -12.0900368202        1.4006271905        1.3810932109
 H       -11.4584293348        2.8126345374        3.9474329580
 H       -12.8817992780        1.6409714243        3.7589679108
 H       -13.5379220149        5.3763330037        0.1657768502
 H       -11.6935371474        5.4138739568       -0.0637951912
 H       -13.3163231174        7.7820649171        0.9138867416
 H       -13.0768838808        7.5461309582       -0.7406460145
 H        -8.3411330935       10.8289211494       -1.1638066872
 H        -8.4599749961        9.1175629786       -1.2168772359
 H        -7.3433455940       10.7993060646        1.0659606796
 H        -6.2809301332        9.8807916218       -0.1549633097
 H        -5.2481466572        6.7152352462       -1.1804948142
 H        -4.4395086395        5.5886687914       -0.1891708823
 H        -4.0386741185        7.3290034806       -0.0747769376
 H        -3.9783104566        8.3742925014        2.4913432406
 H        -5.0136162563        9.8085580580        2.5751907095
 H        -4.4786191417        9.1804305193        1.0520243532
 H        -5.3193361819        7.3677754268        3.8031095543
 H        -6.9536610108        6.7830375578        3.4739159290
 H        -6.5915339304        8.4623062421        4.0289753945
 H       -10.3533686912        9.1716352943       -2.1901705242
 H       -11.2671744502       10.7550700717       -2.0606168669
 H       -12.1672418661        9.2558450809       -2.1102195726
 H       -12.1724607195       11.5661306818        0.0252257976
 H       -12.2833620694       10.2979168971        1.4279992229
 H       -13.2879246268       10.2276593766       -0.0252966737
 H       -15.0094006433        5.1494783159        1.6536221051
 H       -14.7312566565        6.5762893666        2.6174808743
 H       -15.3185743574        5.0790003365        3.4448600484
 H       -11.7257070438        4.8612439181        4.6353622179
 H       -13.3595156086        4.5832617606        5.2012843319
 H       -12.8825581627        6.2562481568        4.9997259798
 H        -9.0841162368       -0.0208288133        0.9007406687
 H        -8.9062921798        0.3384355547       -0.7042021945
 H       -10.5235761786        0.3998016203       -0.1938841172
 H        -7.6837838151        1.7423489067        1.8851306420
 H        -7.7336999597        3.3515657598        1.3137926883
 H        -7.0184055293        2.0127006361        0.3781953071
 H       -10.4723050194        0.6831384182       -5.6359192883
 H       -11.9790973972        1.4865629703       -5.5085393922
 H       -11.8206014351       -0.1051541762       -6.2259436285
 H       -13.9707588405        0.4830519018       -4.0140881889
 H       -13.5606897721       -0.9076616649       -3.1619993460
 H       -13.4273688002       -0.9488109877       -4.9211654688
 H        -4.9996983088       -2.1519507339       -2.5002205614
 H        -5.0270389752       -2.8501147345       -0.8988935840
 H        -5.8644110880       -1.3164278602       -1.3209027670
 H        -5.6517625426       -4.8395149386       -2.4543921174
 H        -5.9968208757       -3.9030748717       -3.9420305544
 H        -7.2012647944       -4.9938578256       -3.2703920922
 Na       -9.3179774758        5.9356667355        1.4298514698
