117

 C       -10.0371804206       -4.3784166834        0.4367470116
 C        -8.9277762900       -3.4160751129        0.4734886907
 O        -8.8901150892       -2.6085561070        1.3739095359
 C        -7.8661275776       -3.2732166930       -0.7507157508
 C        -8.3734329992       -2.4555410930       -2.0530152363
 O        -7.8218024001       -1.3689285808       -2.2870778697
 C        -9.3382048373       -3.2531490831       -2.9721152462
 C       -10.1994078516       -2.3580715139       -3.9145756231
 C       -10.7785505024       -1.2516440818       -3.2049291722
 O       -10.6742272569       -1.1357328418       -1.9807919771
 C       -11.6815998693       -0.2095401287       -3.9133905157
 C       -11.2170202398        1.3433136491       -3.3869265974
 O       -12.0185212468        2.2139852582       -3.1843733070
 C        -9.6484741388        1.5846589895       -3.2456757345
 C        -9.1665910861        2.8888861832       -2.5335486517
 C        -9.5367938751        2.9911143231       -1.0487478445
 O       -10.2738994640        3.8545819512       -0.6580878620
 C        -8.9010342228        2.1283416888        0.2049829738
 C        -9.2953361206        2.8089830672        1.5231717761
 O        -8.6875549208        3.8237197714        1.8627918074
 C       -10.3875316174        2.2432645476        2.5155747001
 C       -10.9675866295        3.4151939218        3.3083372264
 C       -12.3721253247        3.8523407587        2.7480584436
 O       -13.0948206934        3.2322902238        1.9993547539
 C       -12.8351517020        5.2558575291        3.2726410225
 C       -11.9778095692        6.1614487320        2.2984313280
 O       -10.7532231015        6.0745109899        2.3381975376
 C       -12.6176231900        7.0100628488        1.1376087461
 C       -11.8139008294        8.3192049767        0.7537980082
 C       -11.1331117980        8.1935493967       -0.6165053073
 O       -10.7865253684        7.1419164685       -1.1744253136
 C       -10.6878383086        9.5664603225       -1.2849040668
 C        -9.6298422902       10.1973738387       -0.2659438446
 O        -9.9504052388       10.5562580152        0.7970274078
 C        -8.1414331351       10.4437548918       -0.6939705575
 C        -7.2953974595        9.9736725962        0.4709286724
 C        -7.6437469052        8.4959476267        0.8555744373
 O        -8.6065232985        7.9702622089        0.3707563771
 C        -6.7482819113        7.5368257464        1.7004372381
 C        -6.2756283269        6.5258174848        0.6191843070
 O        -6.9673404123        5.6949178710        0.0825476389
 C        -4.8360370310        6.7090962842        0.0883371279
 C        -5.4948542899        8.1992768655        2.4577698049
 C        -7.6342717507        6.8683461002        2.8335268721
 C       -10.1307812897        9.1887314757       -2.6813353883
 C       -11.8814952977       10.6384293858       -1.4040393004
 C       -14.3403761509        5.5714659628        3.0882068876
 C       -12.4823343733        5.6256294142        4.7332151893
 C        -9.2825348829        0.6861846991        0.0495256233
 C        -7.3057143937        2.0732476377        0.0142326901
 C       -11.3950835930       -0.2228576554       -5.4122116520
 C       -13.1528021595       -0.4318220824       -3.4418859996
 C        -6.6750183679       -2.5029176129       -0.1541377432
 C        -7.4731045142       -4.6642061750       -1.2966341995
 H       -10.5741474729       -4.3977967503       -0.4573922109
 H       -10.5996722144       -4.1558779723        1.3858749574
 H        -9.5813249693       -5.3373541893        0.5574863742
 H       -10.0051019729       -4.0055838537       -2.4193924072
 H        -8.6667886587       -3.7787606529       -3.6042032742
 H       -10.9852576993       -2.9292548872       -4.4341342528
 H        -9.4954615514       -2.0458428369       -4.7603882208
 H        -9.2697592009        1.4492424538       -4.2543906688
 H        -9.3744118239        0.8299262435       -2.5486106129
 H        -9.4887699785        3.7404670354       -3.0914382491
 H        -8.0174309010        2.8378516506       -2.6162665868
 H        -9.8766916188        1.4996504265        3.1379092535
 H       -11.2169387292        1.8107781181        1.9344628164
 H       -10.3032339434        4.2396170729        3.1844788896
 H       -11.1331983324        3.2672768129        4.3945150410
 H       -13.7166391444        7.0713657957        1.3366768717
 H       -12.4944765544        6.3814716270        0.2459832388
 H       -10.9963454346        8.4424052615        1.4800791199
 H       -12.4262029396        9.2623956196        0.7184072863
 H        -8.0065226432       11.5955144763       -0.7099497598
 H        -7.7872889124       10.1068646048       -1.6659149514
 H        -7.3759521870       10.6075557738        1.3062952602
 H        -6.2390892763        9.9810443336        0.3581991452
 H        -4.8274545948        7.7261604560       -0.2878944091
 H        -4.5543311229        5.9680388108       -0.6734262995
 H        -4.0518295655        6.6154545505        0.8383401964
 H        -4.7672280885        7.4432028612        2.5811415497
 H        -5.7714619815        8.5827985600        3.4155197735
 H        -5.0316712271        8.9369012624        1.8365914493
 H        -7.0086486189        6.3516910521        3.5335038391
 H        -8.2225961533        6.0751797646        2.3740392427
 H        -8.2402200692        7.6290685755        3.2464217467
 H        -9.2389543949        8.5370769931       -2.6556437921
 H        -9.7764050393       10.0423561421       -3.2630116793
 H       -10.7671992215        8.5710737125       -3.2784219796
 H       -11.6878562792       11.3418412896       -2.0736038976
 H       -12.0112056845       11.2782255330       -0.5389116284
 H       -12.7849213127       10.0976502579       -1.6769721844
 H       -14.6123641871        5.2611152006        2.0968167506
 H       -14.7157266210        6.5406952847        3.3780630862
 H       -14.8909578574        4.8776318145        3.7511375292
 H       -11.4186838060        5.4471600969        4.8336170420
 H       -13.1002624115        4.8801190924        5.2794541287
 H       -12.7943727552        6.5653467595        4.9778863504
 H        -8.6474290057        0.0875686066        0.6872736867
 H        -9.1594203714        0.4304421072       -1.0267960038
 H       -10.2805529585        0.4344425728        0.4032559565
 H        -6.9989387704        1.4636422001        0.8831959794
 H        -6.8410853522        3.0241675629        0.0092193847
 H        -7.0756089000        1.5299156320       -0.9338293018
 H       -10.4334321198        0.1015223424       -5.6440578598
 H       -12.0498732091        0.3673488003       -5.9963478236
 H       -11.5710082278       -1.2509480922       -5.7181030298
 H       -13.8253408770       -0.0050969023       -4.1451048137
 H       -13.3509447613        0.1434000911       -2.5878705769
 H       -13.3556181391       -1.4996223128       -3.2521038019
 H        -5.8943627150       -2.3065095168       -0.8834967673
 H        -6.1698075047       -2.9863237031        0.7277752422
 H        -7.0715975681       -1.5360071522        0.2177428518
 H        -6.8972924693       -5.2350486780       -0.6098723557
 H        -6.8126453629       -4.6126201335       -2.1769211714
 H        -8.3418216125       -5.2455175005       -1.5386975284
 Na       -9.4844570766        5.7464918168        0.2167487529
