117

 C       -10.5717330931       -3.3624252883        1.2906432300
 C        -9.0177015896       -3.2892774761        1.0146810232
 O        -8.3166113226       -2.4816305195        1.5762023308
 C        -8.3975829315       -4.0675809038       -0.2676448500
 C        -8.8246662440       -3.1781036113       -1.4287791443
 O        -8.3482852180       -2.0959338466       -1.5245020960
 C        -9.8555755870       -3.6268388768       -2.4224535899
 C       -10.2818032429       -2.5692558917       -3.5506968790
 C       -11.3897133921       -1.5651359029       -3.1213967296
 O       -12.0883897024       -1.7723003348       -2.1718172609
 C       -11.6912675611       -0.2516887064       -3.9420950519
 C       -11.0650086768        0.7897538739       -3.0086420381
 O       -11.6535887349        1.5875806689       -2.3161778122
 C        -9.4398978390        0.8492488009       -2.8429091599
 C        -8.9230697576        2.2763023807       -2.6076753067
 C        -9.1742743155        2.9764866876       -1.2625297355
 O        -9.1720124059        4.1817772893       -1.3763954917
 C        -8.8516520463        2.3105097766        0.1019256705
 C        -9.2454730896        3.1476894851        1.4027024947
 O        -8.8646862223        4.2699903570        1.5434714365
 C        -9.9961759023        2.4367970118        2.5930567930
 C       -10.7875518576        3.5259515434        3.2879629971
 C       -11.9489130773        4.0513373197        2.4373847798
 O       -12.2124510294        3.7083244728        1.3578427632
 C       -12.7864576369        5.3840568125        2.9167997136
 C       -12.1390719251        6.4508435249        1.9911026500
 O       -10.9706145304        6.6288168714        2.0048848063
 C       -12.9107715860        7.1281977313        0.8843472613
 C       -12.2720908775        8.4649997171        0.5684030328
 C       -11.3952449504        8.4711796896       -0.6703477102
 O       -11.0141751355        7.3988653294       -1.1325449448
 C       -10.8798109519        9.7680990658       -1.3097211147
 C        -9.7223431273       10.2392820805       -0.3473204469
 O        -9.9832659600       10.3544634068        0.8507695237
 C        -8.3243816177       10.6700853966       -0.8168232142
 C        -7.2577573437       10.1133204398        0.1760223752
 C        -7.3527887630        8.5920034229        0.4176326183
 O        -8.4090034545        8.1018883506        0.1121392210
 C        -6.2459634070        7.9413974382        1.2630659387
 C        -5.8933507662        6.4314968660        0.7083715435
 O        -6.5627754681        5.9596377318       -0.1723251254
 C        -4.6213688367        5.7276894107        1.2657669738
 C        -5.0031969360        8.8421778770        1.3214932990
 C        -6.8329964727        7.7122710178        2.7011252453
 C       -10.4149046881        9.5187765593       -2.7592068781
 C       -11.9194953945       10.9283628126       -1.2712053555
 C       -14.2729955036        5.1074439014        2.5839984141
 C       -12.6529660842        5.7535773346        4.4190525835
 C        -9.1621772815        0.7830551799        0.3252805780
 C        -7.3134741916        2.4048810191        0.0036082844
 C       -11.0818310941       -0.2504255826       -5.3931714755
 C       -13.2239049158       -0.0427291235       -4.0914631409
 C        -6.8489501451       -4.0825544962       -0.1366148287
 C        -8.9491715478       -5.5278026616       -0.2645758743
 H       -10.9875101660       -2.3814819325        1.2054908842
 H       -10.6283135074       -3.6656521052        2.3025697258
 H       -11.0514126938       -4.1427350977        0.7720729385
 H       -10.8144187214       -3.9887434502       -2.0459067881
 H        -9.5455753539       -4.5191129777       -3.0780105853
 H       -10.4926335557       -3.0988144436       -4.4115973059
 H        -9.4148542972       -1.9607265246       -3.7780591709
 H        -8.9689314385        0.3172052736       -3.7282307841
 H        -9.1763154140        0.2395416062       -1.9841636279
 H        -9.2007468166        2.8940259052       -3.4357429443
 H        -7.8198905334        2.2653637900       -2.6742433457
 H        -9.2646420068        1.9951615892        3.3075954617
 H       -10.5516215019        1.5525542089        2.3029525677
 H       -10.1401506505        4.3821486755        3.4606557338
 H       -11.2650875748        3.2161653674        4.2541832835
 H       -13.9559376144        7.2218647118        1.1817787176
 H       -12.7427844024        6.4644547480        0.0440509606
 H       -11.7026258440        8.7631424239        1.4274423810
 H       -12.9638843435        9.2702786454        0.3945830164
 H        -8.2280062514       11.7377042872       -0.8493658946
 H        -8.1729700537       10.2712605042       -1.8146249886
 H        -7.5416880398       10.5301531417        1.1758406005
 H        -6.2587090810       10.3129616122       -0.2935331223
 H        -4.5205918031        5.8289797092        2.3940294999
 H        -3.7149143626        6.1305250830        0.8500460018
 H        -4.6967295922        4.6471834346        1.0659110757
 H        -4.3094207680        8.3006259194        1.9400030265
 H        -5.2166505461        9.6988940120        1.8804097974
 H        -4.5185545322        9.0857149749        0.4193694894
 H        -6.1369106351        7.3344244335        3.4845889914
 H        -7.7400501172        7.1093681947        2.6984743022
 H        -7.1482970821        8.6906905476        3.1351414303
 H        -9.5653286231        8.8290839630       -2.8950639028
 H       -10.1291963481       10.4078636493       -3.3235771382
 H       -11.2469487373        9.0207665480       -3.2591287256
 H       -11.5022692499       11.9218276243       -1.7599952815
 H       -12.1399544900       11.2954421940       -0.2465245885
 H       -12.8310847153       10.5824322247       -1.7363164770
 H       -14.4277257484        4.9664427970        1.5189004693
 H       -14.8813306573        5.9791417717        2.7829311832
 H       -14.6769089683        4.3545224620        3.2789262075
 H       -11.6772865832        6.1460767097        4.5471969942
 H       -12.9830774295        5.0095000833        5.0717006344
 H       -13.3615007219        6.6313935797        4.5973254379
 H        -8.8955305945        0.5882525229        1.3396354988
 H        -8.5536618775        0.1179456867       -0.2751638548
 H       -10.1580497578        0.4921658243       -0.0486896850
 H        -6.9519164377        2.1059775838        0.9700879060
 H        -7.0737014332        3.4696459723       -0.1337941343
 H        -6.9670898729        1.6955477850       -0.6972708522
 H        -9.9491839927       -0.2902677634       -5.3524506762
 H       -11.3238925840        0.6906956080       -5.8253151656
 H       -11.4321179457       -1.0593294501       -6.0044193335
 H       -13.8244577716       -0.4405894606       -3.3112862031
 H       -13.4801193926       -0.4220237803       -5.1074287401
 H       -13.4486477331        0.9637731173       -4.0701957563
 H        -6.4178368932       -4.6297720019       -1.0189119293
 H        -6.6722506113       -4.6649800586        0.7765578675
 H        -6.4258237777       -3.0770342164       -0.0774013953
 H        -8.6093926751       -6.0265120051        0.6341382373
 H        -8.5803181516       -6.1079843161       -1.0710051710
 H       -10.0030694559       -5.4326512640       -0.2672409033
 Na       -9.2278441941        6.0687187630        0.0998593952
