117

 C       -10.4743258088       -3.6384126200        1.3815583899
 C        -9.0826734716       -3.1476265947        0.9407906627
 O        -8.4012417888       -2.3234596581        1.5067480922
 C        -8.3727653515       -3.8860614452       -0.3708210944
 C        -8.7381484555       -3.1649516066       -1.6503536065
 O        -8.1425373958       -2.0938123200       -1.9341072317
 C        -9.8524880308       -3.5643598319       -2.5143401736
 C       -10.0906452833       -2.4990302167       -3.6099449978
 C       -11.2908665879       -1.6003314188       -3.2118042168
 O       -11.8703254289       -1.7439026909       -2.1224245081
 C       -11.6997740657       -0.3047365451       -3.9756387706
 C       -11.1042571683        0.9118068867       -3.0115040074
 O       -11.9229645238        1.6509768884       -2.5109395145
 C        -9.6176388578        1.0883337651       -2.9488295966
 C        -8.8743239899        2.3304316243       -2.4740389302
 C        -9.2012674091        3.0209764278       -1.1900827245
 O        -9.8178366676        4.0700422549       -1.2206333510
 C        -8.6907062119        2.3908503838        0.1720162189
 C        -9.1463481914        3.1825420987        1.4105110474
 O        -8.6448161861        4.3081182067        1.5718689767
 C       -10.0595751037        2.5755824277        2.4861833897
 C       -10.8488787206        3.5406585794        3.3424030897
 C       -11.9472060685        4.1542968030        2.3947330529
 O       -12.2319016329        3.5568599673        1.3468630385
 C       -12.7447772502        5.4065866449        2.8128260840
 C       -12.1213304315        6.4211072398        1.9759988447
 O       -10.8734655322        6.5772022676        2.1117710994
 C       -12.9957979268        7.1904916756        0.9866862447
 C       -12.4525486276        8.5009544338        0.3641498332
 C       -11.3022287196        8.3821629328       -0.6038930974
 O       -10.8437640572        7.3326981368       -0.9079566651
 C       -10.8969777218        9.6838461708       -1.2526361508
 C        -9.7320784246       10.2586663273       -0.3456538497
 O        -9.9926151258       10.5226873736        0.8010491147
 C        -8.2676267183       10.5289087050       -0.7913905017
 C        -7.2056908161       10.1986818396        0.3013257931
 C        -7.3072614932        8.6528932167        0.4909206085
 O        -8.2380466045        8.0776867220       -0.0414610266
 C        -6.2961367858        7.8511257138        1.3455682238
 C        -5.9196503782        6.4210683787        0.6514735105
 O        -6.6912718741        5.8406647534       -0.0807184463
 C        -4.5754583270        5.8273520645        1.1677672245
 C        -4.9486262362        8.6728856271        1.6514087553
 C        -6.9539551695        7.3576930203        2.6570917893
 C       -10.6030964519        9.4722385161       -2.7057864344
 C       -12.0112266890       10.7444888071       -1.1908890473
 C       -14.2889013191        5.1280345964        2.6474037924
 C       -12.4769487859        5.7042899530        4.3519701125
 C        -9.3510381920        0.9660310772        0.1784224070
 C        -7.1287208528        2.3324269162        0.2966616041
 C       -11.0333219501       -0.2679992254       -5.3759376796
 C       -13.2666156440       -0.2034538729       -4.1013656050
 C        -6.8305554389       -3.8065196264       -0.1741107212
 C        -8.7154567395       -5.4063982962       -0.3757730835
 H       -11.0494708085       -3.0336832989        0.7152916230
 H       -10.7890308327       -3.4111836105        2.4539941097
 H       -10.5807681624       -4.6993464533        1.2540226680
 H       -10.8119064969       -3.6215762657       -2.0220223143
 H        -9.7198672526       -4.4909883914       -2.9742740783
 H       -10.4181715649       -3.0400152769       -4.5794895707
 H        -9.1868718501       -1.9575753931       -3.8961509915
 H        -9.2929697848        0.7368180070       -3.8708511774
 H        -9.2847292701        0.2404408932       -2.3352438921
 H        -8.9252688655        3.0753817992       -3.3233945167
 H        -7.8248526212        1.9957102382       -2.4771854111
 H        -9.4305484522        1.9745938621        3.1580541922
 H       -10.6647251739        1.7568544927        2.0318889995
 H       -10.1895543480        4.3633623443        3.6243162954
 H       -11.3403769409        3.1039627675        4.1617062140
 H       -13.8712589843        7.4646561604        1.5989605382
 H       -13.2217534645        6.4561790751        0.1678563841
 H       -12.0556309481        9.2343197248        1.0976876894
 H       -13.2602432688        9.0654305857       -0.1025403791
 H        -8.3153546976       11.6494918646       -0.8906577686
 H        -7.9300356571       10.2107899668       -1.7991665436
 H        -7.5611605754       10.5699699100        1.2485861823
 H        -6.2518879358       10.4599768095       -0.0924179050
 H        -4.6755430730        5.2834559074        2.0769623820
 H        -3.9202122629        6.7406390517        1.3131918733
 H        -4.0727327196        5.1213307689        0.5485804570
 H        -4.2630997884        8.3317714058        2.4463300130
 H        -5.2410762274        9.6801441387        2.0384359060
 H        -4.5200772627        8.8719014970        0.6480567467
 H        -6.1995705909        7.0092148569        3.3169661554
 H        -7.6572847071        6.5732544099        2.4277445715
 H        -7.4770587698        8.0885911951        3.2368399418
 H        -9.6482621207        8.9874301921       -2.8485559013
 H       -10.4487362577       10.3975362822       -3.2752179999
 H       -11.3833144155        8.8951545665       -3.2276600844
 H       -11.7069524854       11.5294648829       -1.7817593002
 H       -12.1758305242       11.1196196514       -0.1855651581
 H       -12.9981379808       10.4118872412       -1.5643383674
 H       -14.5570717749        4.8712321963        1.6392147640
 H       -14.8247091521        6.0697297749        2.8022494578
 H       -14.6552816885        4.4793240830        3.3957611221
 H       -11.4764705644        6.1043899361        4.4429593414
 H       -12.7116754624        4.7841674661        4.9026229638
 H       -13.2559593403        6.3594938981        4.6375098888
 H        -9.2378582866        0.4969735215        1.1887919688
 H        -8.8622187629        0.2187587052       -0.4759776557
 H       -10.3507210152        1.0575983514       -0.2043307703
 H        -6.7790324199        1.6721497054        1.0983927344
 H        -6.9150730466        3.3602845657        0.5010572208
 H        -6.6934142652        1.9021989801       -0.6175568029
 H       -10.0081710385       -0.3897054949       -5.3718548262
 H       -11.3388536001        0.6490012471       -5.8857705416
 H       -11.4067042350       -1.1104321813       -5.9269428256
 H       -13.7265234990       -1.1353489422       -3.7553660897
 H       -13.5561339273        0.1619522773       -5.0524133391
 H       -13.6374015122        0.5427453968       -3.3215058267
 H        -6.2678954483       -4.1193568621       -1.0356993588
 H        -6.5250993299       -4.3416295306        0.7204523295
 H        -6.6932184684       -2.7269830988       -0.0505299484
 H        -8.5691221533       -5.7553840031        0.6428166814
 H        -7.9787534519       -5.9340321405       -0.9931854227
 H        -9.7507469866       -5.6154458637       -0.6813569070
 Na       -9.3493544053        5.9312596122        0.2624826253
