117

 C       -10.3128134161       -3.8659603804        1.0827717542
 C        -9.0945398640       -3.0380015916        0.5752782180
 O        -8.8201686076       -1.9913209552        1.1036557780
 C        -8.0515212790       -3.6699646105       -0.5778388456
 C        -8.4582165813       -2.9192631162       -1.8295857151
 O        -8.0465740455       -1.8399851178       -2.2132654147
 C        -9.6047153522       -3.4949185318       -2.6668124171
 C       -10.2383017693       -2.5464352481       -3.6837679749
 C       -11.1509851288       -1.4909967781       -3.0303339343
 O       -11.4607336796       -1.6250755930       -1.8447212114
 C       -11.6111817548       -0.2576907548       -3.9159458477
 C       -11.0624389113        1.0295907034       -3.2387252955
 O       -11.7328565132        2.0075228098       -2.9483836754
 C        -9.5236541560        1.3345499765       -3.0476995071
 C        -9.2578912426        2.7277355458       -2.4144412858
 C        -9.5733985243        2.8672170964       -0.9706223316
 O       -10.0205305707        3.9205669369       -0.6292001607
 C        -8.8150482217        2.0297484489        0.1809876608
 C        -9.1138365594        2.8050136525        1.5100587611
 O        -8.5708803148        3.8871936690        1.6812966340
 C       -10.0489081143        2.2743118741        2.5794067324
 C       -10.7404432861        3.3705150328        3.3646960127
 C       -12.0103019484        3.9133820244        2.5555237950
 O       -12.4859582248        3.2329642043        1.7055960928
 C       -12.7362755926        5.3634519594        2.9882373554
 C       -12.1340031025        6.4389946068        1.9778530546
 O       -10.9518736155        6.7434832060        2.0570489751
 C       -13.0075453264        7.1715869478        0.8461005148
 C       -12.4721869435        8.6217983964        0.4746165004
 C       -11.3553505275        8.4930575911       -0.5753112174
 O       -11.0417119834        7.4163477547       -0.8862773205
 C       -10.7906871958        9.7769155944       -1.2538074292
 C        -9.6174037274       10.3526565324       -0.2931708877
 O        -9.9860556189       10.6848489939        0.8431036834
 C        -8.1788127679       10.5044942016       -0.7185906132
 C        -7.1351677765        9.9475210805        0.2998524424
 C        -7.4378416550        8.4484507144        0.5136841310
 O        -8.3794433414        7.9453842378       -0.0593580516
 C        -6.5776799717        7.6146350888        1.5005601489
 C        -6.0669081883        6.3280874327        0.7147873150
 O        -6.8422437035        5.5212224578        0.2476048359
 C        -4.5459535521        6.1764025288        0.5713110824
 C        -5.3214438514        8.4344120913        1.9614299435
 C        -7.5044756537        7.2463350574        2.7430945452
 C       -10.3191828305        9.3525358526       -2.6761358067
 C       -11.8132392630       10.9282682054       -1.3783537787
 C       -14.2803480093        5.1520621303        2.8048241252
 C       -12.3809531137        5.8547729735        4.4651334233
 C        -9.1292334416        0.5433606220        0.3022026769
 C        -7.3030253834        2.3794426127       -0.1632062145
 C       -11.0686891368       -0.2817093849       -5.3862419041
 C       -13.1929021657       -0.1246186120       -3.8387480254
 C        -6.6117514462       -3.2778704553       -0.1311291379
 C        -8.2283225225       -5.1711691692       -0.6762179490
 H       -10.8565163149       -4.2471664471        0.2896987353
 H       -10.9456852101       -3.0287188860        1.3826296649
 H       -10.1477252340       -4.4879389954        1.8881791449
 H       -10.4213745666       -3.7884505421       -2.0630911556
 H        -9.2488195349       -4.3404362641       -3.1788962431
 H       -10.8317890120       -3.1589577167       -4.3969070074
 H        -9.4943791135       -2.1869169836       -4.3244924071
 H        -8.9752581708        1.1910932191       -3.9376983245
 H        -9.1172338373        0.5376081096       -2.3970668828
 H        -9.7541823535        3.5507077312       -3.0147776626
 H        -8.1737622397        2.7954104630       -2.4961436787
 H        -9.3969720705        1.6702333803        3.2666543770
 H       -10.7747199045        1.5153617352        2.1994998374
 H       -10.1299679832        4.2596486581        3.4979456482
 H       -11.1177218965        2.9860608931        4.2666331237
 H       -14.0368608050        7.3147448197        1.1850104701
 H       -12.9205285518        6.4176048684        0.0266915652
 H       -12.0438633442        9.1543471764        1.3119622895
 H       -13.3138269823        9.2052235039        0.1980538079
 H        -7.9261885477       11.5217697916       -0.9923814056
 H        -8.0584817317       10.0744678323       -1.7363904548
 H        -7.1707791834       10.4921262840        1.2847826746
 H        -6.1059457355        9.9231517279       -0.1466684495
 H        -4.0596587811        5.6841032136        1.3824333903
 H        -4.1710593118        7.2322776900        0.3457053005
 H        -4.2268801557        5.5526554157       -0.2255341465
 H        -4.7163745938        7.8183039188        2.5913736865
 H        -5.6636760561        9.2651750972        2.5113969593
 H        -4.7785359303        8.8328399410        1.1479095325
 H        -6.8592789258        6.5961363806        3.3390813036
 H        -8.4119290076        6.6870822170        2.5009674583
 H        -7.7936518039        8.1139500288        3.3729950775
 H        -9.5405353590        8.6255046216       -2.7572747189
 H       -10.0806314820       10.1374367392       -3.3833807757
 H       -11.1843378250        8.9510815470       -3.2308672394
 H       -11.4666878072       11.6005569337       -2.1476237029
 H       -12.0712330996       11.3359228941       -0.4299977147
 H       -12.8077748542       10.6296733370       -1.7651559317
 H       -14.5622511820        4.7999818134        1.7953296354
 H       -14.9068223323        6.0158293320        3.0948272574
 H       -14.5408973372        4.2830640779        3.3644384647
 H       -11.4109196945        6.1947519705        4.4561973660
 H       -12.4060255036        4.9823648118        5.0434508271
 H       -13.0970596136        6.6228492592        4.7120473774
 H        -8.7115701535        0.1968157928        1.2974629198
 H        -8.5642094779       -0.0059188168       -0.4435349227
 H       -10.1677705569        0.3167171712        0.4150600077
 H        -6.7105033603        1.9884973076        0.6489859892
 H        -7.1655873683        3.4463739929       -0.3216895232
 H        -7.1049219208        1.8250611521       -1.0740384912
 H       -10.0283259709       -0.0785040493       -5.4154420629
 H       -11.6372599099        0.4671546231       -5.9539178660
 H       -11.2203378492       -1.2321703536       -5.8538820884
 H       -13.5842094724       -0.2846704136       -4.8067036148
 H       -13.4329072735        0.7943158297       -3.4025089468
 H       -13.6502556551       -0.8439583841       -3.1723527672
 H        -5.8605573794       -3.7181193633       -0.8256669056
 H        -6.3932629106       -3.7196738909        0.8589760768
 H        -6.4849416804       -2.1718570616       -0.1195446123
 H        -7.8480439302       -5.6331283153        0.2113526342
 H        -7.7632980063       -5.5198963423       -1.5653046955
 H        -9.2639892413       -5.4612271398       -0.7590615612
 Na       -9.3426645738        5.8346834269        0.3430225673
