117

 C       -10.5642450719       -2.6277273454        1.6889554802
 C        -9.2692116527       -3.3738926337        1.3708140685
 O        -8.3417382930       -3.3516566848        2.1763218153
 C        -8.9380998916       -4.0949293205       -0.0041899651
 C        -9.3814748870       -3.2423633808       -1.2560696092
 O        -8.9457923915       -2.1289581112       -1.2958899564
 C       -10.0522975879       -3.7683324335       -2.4373415882
 C       -10.3655957332       -2.6644152026       -3.5171597810
 C       -11.4722409177       -1.6412632268       -2.9341713923
 O       -12.1442924658       -1.9905497393       -1.9929472539
 C       -11.5690503895       -0.1245799325       -3.5129055281
 C       -10.5667335237        0.6914416309       -2.7135064476
 O       -10.8590036260        1.4810457618       -1.8325750558
 C        -9.1263813942        0.5705628493       -3.0554179729
 C        -8.4712150585        1.9081493304       -2.6447891970
 C        -8.9689623382        2.6384418941       -1.4190786054
 O        -9.1657044345        3.8527430306       -1.4769430684
 C        -8.5346470525        2.1677991983        0.0640682066
 C        -9.3067216386        2.9408035116        1.1800921307
 O        -9.2272582251        4.1376035384        1.3206635983
 C       -10.2141835446        2.1814271673        2.2099035137
 C       -10.9146271747        3.1610894598        3.0669497178
 C       -12.1027332648        3.8051015715        2.2973329282
 O       -12.7365754256        3.1964048731        1.4996873198
 C       -12.6761989346        5.3289562225        2.6234782105
 C       -11.9610219499        6.2770940009        1.7460709550
 O       -10.7445247586        6.3882773405        1.7886428683
 C       -12.7170481272        7.2256314919        0.7920674974
 C       -11.9313272033        8.5744687383        0.5446664827
 C       -11.1537725952        8.6208111124       -0.7493233893
 O       -10.7705871403        7.5409451579       -1.2798520946
 C       -10.7996558328        9.9551924885       -1.4977161865
 C        -9.6862832896       10.7217334259       -0.5265284654
 O        -9.8815169879       10.9135574977        0.6678684431
 C        -8.2271828874       10.8470407766       -1.0695274261
 C        -7.1134203617       10.4128651540       -0.0117134379
 C        -7.3790425367        8.9052188049        0.3276180983
 O        -8.3904236442        8.3200142903       -0.0253308590
 C        -6.2468507191        8.2649529269        1.1082118289
 C        -6.2058349745        6.6414208663        0.8089095986
 O        -7.1142498131        6.0850913102        0.2265550586
 C        -4.9824197457        5.8394287682        1.3168241554
 C        -4.8659256656        8.8828597647        0.8040261062
 C        -6.6950177899        8.4487382825        2.5775887735
 C       -10.1518901921        9.6875455621       -2.8858036710
 C       -11.9821762326       10.8832913583       -1.5863284182
 C       -14.2397141017        5.2931402610        2.5112467986
 C       -12.2064396394        5.7686273412        4.0235531132
 C        -8.6762226944        0.6595636027        0.3883255679
 C        -6.9799428537        2.4870743665        0.1513682829
 C       -11.3015959803       -0.0567735487       -5.0942232429
 C       -12.9892643280        0.3835684115       -3.2899298795
 C        -7.3792482120       -4.3835598090       -0.0432982609
 C        -9.6909559580       -5.4629954212        0.0785362502
 H       -10.7898712721       -2.5685261490        2.8051333653
 H       -11.4386025674       -3.1179986813        1.1936219635
 H       -10.3758565934       -1.5462172007        1.3953386809
 H       -11.0034725039       -4.2503266698       -2.3513514598
 H        -9.4592021433       -4.5600076900       -2.8537979651
 H       -10.7989786231       -3.1101989236       -4.4469802441
 H        -9.3819923645       -2.0794400530       -3.7577844753
 H        -8.9808107923        0.4797953224       -4.1369991952
 H        -8.6971106314       -0.2689390550       -2.4981077565
 H        -8.7093382049        2.5290511259       -3.4747944034
 H        -7.3670811199        1.7254969394       -2.6731965052
 H        -9.6550407826        1.5223458636        2.8811908200
 H       -10.8880929426        1.5684255451        1.6064167213
 H       -10.2570554731        3.9648471409        3.3976164381
 H       -11.3849496464        2.6353788669        3.9182694873
 H       -13.7568022098        7.4218630700        1.1130856550
 H       -12.7671400763        6.5411505447       -0.0641155101
 H       -11.1423001679        8.6910017837        1.3402466728
 H       -12.6196927015        9.4712482280        0.6928694089
 H        -8.1347442217       11.9248806407       -1.3823913150
 H        -8.1277509282       10.1668619051       -1.9125896817
 H        -7.2001024668       11.0175299309        0.8562708403
 H        -6.1449532295       10.5535868866       -0.4648554473
 H        -4.6793681340        6.1821674214        2.3237989297
 H        -4.1849502561        6.1256610539        0.6814387715
 H        -5.1136672437        4.7711877146        1.0950126600
 H        -3.9587617883        8.3280292581        1.1331110502
 H        -4.7283443960        9.9139393299        1.1555368769
 H        -4.7798569032        8.9906818717       -0.2928594713
 H        -6.1436061291        7.8192072361        3.3160976755
 H        -7.7029959703        8.0455764377        2.7044517982
 H        -6.8306376688        9.4735454692        2.9714170581
 H        -9.5416233320        8.7747024306       -2.8185184015
 H        -9.6578123677       10.5805783457       -3.2675523317
 H       -10.9401763835        9.5161097640       -3.5977505186
 H       -11.7189504918       11.7809371544       -2.2468942942
 H       -12.2510373961       11.1945404297       -0.5799277217
 H       -12.7621622818       10.4140055316       -2.0953420387
 H       -14.6205287551        5.0075277441        1.5336712952
 H       -14.5288678924        6.2948603161        2.7546955672
 H       -14.7827687306        4.5835466865        3.1586889923
 H       -11.0863808826        5.8108940350        4.0724978280
 H       -12.4397109937        5.1117480741        4.8699414382
 H       -12.5771344459        6.8830493948        4.1629275429
 H        -8.3556936864        0.3897414604        1.3641115661
 H        -8.0692478105        0.0286861119       -0.2694149479
 H        -9.7548962475        0.3610705189        0.3798976908
 H        -6.6620691906        2.3862463288        1.1844145038
 H        -6.8530646527        3.5292542743       -0.2110026181
 H        -6.5089533876        1.8596505926       -0.5795212991
 H       -10.3310130148       -0.6446777312       -5.3385596874
 H       -11.1557772579        0.9530454235       -5.4738580727
 H       -12.1602657189       -0.5095280160       -5.6469514685
 H       -13.0359232266        1.3547151441       -2.7948672938
 H       -13.5194782886       -0.2579775091       -2.4919711125
 H       -13.4848447311        0.4465585436       -4.2284713952
 H        -7.1920547535       -5.0700114636       -0.8719475235
 H        -7.1484206181       -4.8520449108        0.9129626749
 H        -6.8455196540       -3.4593555563       -0.1213466992
 H        -9.4236644421       -5.8933263058        1.0330037609
 H        -9.4995287681       -6.0991439049       -0.7869488888
 H       -10.7531288531       -5.2731804087        0.1129611912
 Na       -9.2806878417        5.8668801692       -0.1349682813
