117

 C       -10.5250459316       -2.5601866087        1.5613153320
 C        -9.2135894385       -3.3523242671        1.3611993594
 O        -8.4099837089       -3.4381891621        2.2921080744
 C        -9.0016866035       -4.0970230627        0.0199013213
 C        -9.2985807248       -3.1719097613       -1.2521792376
 O        -9.0561125916       -1.9857484685       -1.1617561122
 C       -10.1587070007       -3.7299442704       -2.4782253295
 C       -10.3909425347       -2.5842089262       -3.3854319903
 C       -11.4344576300       -1.5682823430       -2.7960863106
 O       -12.1262578529       -1.9574081953       -1.8437441020
 C       -11.5917506326       -0.1716943503       -3.4487768593
 C       -10.4655637326        0.6819314929       -2.6593791986
 O       -10.7938772735        1.3591577968       -1.7037471280
 C        -8.9306636736        0.5606272920       -2.9517928871
 C        -8.3490873598        1.9333103740       -2.7553888876
 C        -8.8705526881        2.6460777412       -1.4403450085
 O        -9.2004765618        3.8238177145       -1.6516806482
 C        -8.5693696941        2.1003026438        0.0769219889
 C        -9.3341641749        2.8215184603        1.1393295257
 O        -9.1409917220        4.0267690971        1.2980210089
 C       -10.2849753579        2.1489914300        2.1188282862
 C       -11.0331585588        3.1005180759        3.0446087455
 C       -12.2370091225        3.8381205770        2.3618978215
 O       -12.8525516879        3.2321366298        1.4296401072
 C       -12.6960109742        5.3440512372        2.7569629673
 C       -11.8617848112        6.2641339323        1.6195164566
 O       -10.6659950097        6.2742436590        1.6941696311
 C       -12.6295287045        7.2977566275        0.6621894580
 C       -11.8256052608        8.5852302417        0.5467978770
 C       -11.0570088894        8.5532678001       -0.7867923766
 O       -10.6565612676        7.5357564679       -1.2380750989
 C       -10.7357271016       10.0104801480       -1.4914137544
 C        -9.6573829937       10.6492167970       -0.5700888810
 O        -9.9817210293       11.0348592988        0.5318872319
 C        -8.2564271369       10.9586016571       -1.1133253591
 C        -7.2686271686       10.3550796029       -0.1275117212
 C        -7.4100081567        8.8387243274        0.2054275174
 O        -8.4541620472        8.2739425469       -0.0305445240
 C        -6.2623015076        8.2052715156        1.0792802822
 C        -6.1373214788        6.6571917228        0.8650882757
 O        -6.9914225355        6.0315411037        0.2765700136
 C        -4.9251230743        5.8949214460        1.3413149657
 C        -4.9332451870        8.9076646613        0.8265775857
 C        -6.6222721595        8.4957927767        2.5399788016
 C       -10.1624764629        9.7326550158       -2.9139280218
 C       -12.0081246695       10.9080220269       -1.5863433416
 C       -14.1767503712        5.2908167409        2.5896499211
 C       -12.3026089998        5.8528020132        4.1341563761
 C        -8.5568493950        0.5221064374        0.3868170197
 C        -7.0436868695        2.5652662232        0.0787684231
 C       -11.2922032557       -0.0245116471       -4.9488764362
 C       -13.0564436015        0.4433649088       -3.2051869420
 C        -7.4921267359       -4.4552818474       -0.0218851361
 C        -9.8576566124       -5.4369161571        0.0175143739
 H       -10.7997090462       -2.6904674088        2.6206004400
 H       -11.3647585808       -3.1245146936        1.0107454786
 H       -10.4637426591       -1.4888715946        1.4257298434
 H       -11.0650890210       -4.1752515201       -2.2879481232
 H        -9.7003865392       -4.5028059741       -3.0984633875
 H       -10.8018138603       -2.9061576678       -4.3699708645
 H        -9.3890346426       -2.1205327525       -3.5313516064
 H        -8.7371087613        0.2210067095       -3.9657457125
 H        -8.5137606985       -0.0677682221       -2.2239680846
 H        -8.6299505044        2.5204359465       -3.6507387627
 H        -7.2391926868        1.8028538087       -2.7505757976
 H        -9.6234360123        1.4972946573        2.7758259407
 H       -10.8945617496        1.4929896686        1.5044247382
 H       -10.3860822138        3.8838964753        3.3351373110
 H       -11.4539499849        2.5958743439        3.8968042707
 H       -13.6183438541        7.4747576185        1.1593297311
 H       -12.8387438647        6.7398911106       -0.2772569422
 H       -11.1388508461        8.6471658149        1.4117560462
 H       -12.4814090856        9.4583007804        0.6210131098
 H        -8.2052823854       12.0263500406       -1.0598847931
 H        -8.0837847085       10.5742046275       -2.1602182817
 H        -7.4644917283       10.9621556698        0.7809211050
 H        -6.2151660827       10.5870890082       -0.4384821227
 H        -4.9219437656        6.0335487620        2.4042891590
 H        -3.9019709175        6.1568557899        0.9418606609
 H        -5.1227959887        4.9155766333        1.0275004219
 H        -4.0455295532        8.6200219796        1.4759631447
 H        -5.0254388447       10.0160806051        0.9880838022
 H        -4.6143330225        8.8544625695       -0.2615370274
 H        -6.0190947656        7.9687504026        3.2651234036
 H        -7.6270550208        8.2456061195        2.8395645861
 H        -6.5752760915        9.5757541260        2.7682251077
 H        -9.5017899355        8.8869388348       -2.8874513258
 H        -9.7875179611       10.6179503811       -3.3996739247
 H       -11.0639820696        9.4842836095       -3.5013486495
 H       -11.7392792147       11.8411525697       -2.0283254487
 H       -12.5121189027       10.9557760315       -0.6495411287
 H       -12.6768925185       10.4512711037       -2.3122835525
 H       -14.4149277839        4.7910256680        1.6569585965
 H       -14.6046805133        6.2807377878        2.6527617432
 H       -14.7068987009        4.6712934785        3.2858260954
 H       -11.2249594319        5.7650585410        4.2944458055
 H       -12.7067835576        5.3349253069        5.0307718649
 H       -12.5698814426        6.9200486178        4.1183100907
 H        -8.2702356970        0.2348321931        1.4224799855
 H        -7.8149519007        0.0134313049       -0.1998226334
 H        -9.5400706689        0.1162095246        0.3401527611
 H        -6.7241085979        2.3938312444        1.1116387380
 H        -6.9880572558        3.6558494236       -0.1971892362
 H        -6.5119500987        2.0070948977       -0.6719958794
 H       -10.5894312321       -0.8279060983       -5.2769301580
 H       -10.7839797426        0.9451094382       -5.1716691999
 H       -12.1845500889       -0.0607010227       -5.5646023259
 H       -13.1354151344        1.5370965561       -2.9879007835
 H       -13.3948340477        0.0215316809       -2.2397047431
 H       -13.7301864292        0.1802277698       -4.0608757154
 H        -7.3571760416       -5.1921186455       -0.8146100963
 H        -7.2601429526       -4.8534059380        0.9207365786
 H        -6.9251626385       -3.5547484198       -0.1787988031
 H        -9.5068487618       -6.0548708362        0.8823279531
 H        -9.8565737842       -5.9233058148       -0.9427133238
 H       -10.9012048456       -5.1721418205        0.2431148659
 Na       -9.3006041940        5.8097820821       -0.2292406781
