117

 C       -10.7241353404       -2.4522088579        1.5330383055
 C        -9.5881065121       -3.5145829235        1.5016040529
 O        -8.9523016723       -3.7150946051        2.4906234752
 C        -9.4513389090       -4.3603706412        0.2143810403
 C        -9.5619916449       -3.3039916893       -1.1122388145
 O        -8.7989058255       -2.3700646085       -1.1363747755
 C       -10.6387951485       -3.6753391344       -2.1183780506
 C       -10.8940993437       -2.5588095899       -3.1002654356
 C       -11.6750143593       -1.5411643510       -2.4339231720
 O       -12.0935281143       -1.8315320644       -1.3263407818
 C       -11.7736272981       -0.0728025469       -2.9525418514
 C       -10.4249426600        0.8517727332       -2.3092428449
 O       -10.6500965082        1.7167340110       -1.5230876228
 C        -8.9818378256        0.7822077752       -2.9066077929
 C        -7.9676165199        1.8809163969       -2.4269239559
 C        -8.3045158875        2.8176267754       -1.3265423239
 O        -8.6020124409        3.9794696742       -1.6016166567
 C        -7.9584385790        2.4176703576        0.1314229972
 C        -9.0498871590        3.0577400562        1.0988868834
 O        -8.7287750115        4.0176869263        1.8089964527
 C       -10.5436735961        2.4754290941        1.1900991648
 C       -11.4158933188        2.9320077509        2.4549160578
 C       -12.5085475171        3.9179352387        1.9516406873
 O       -13.2618763272        3.5340941515        1.0592593285
 C       -12.6658473592        5.4218553180        2.6169416220
 C       -11.6855598723        6.2044556187        1.6987537095
 O       -10.5121084866        6.2595100523        1.9611003767
 C       -12.3349339029        7.0499653012        0.6412805559
 C       -11.3741577792        8.1810413848        0.2435834545
 C       -10.9003803036        8.2291748342       -1.2026547579
 O       -10.3618458412        7.2789908743       -1.7132579620
 C       -10.9492853222        9.6683985254       -1.9121129478
 C        -9.7228248402       10.4518589469       -1.0716956556
 O       -10.1012964120       10.9449487046       -0.0433202205
 C        -8.2631428523       10.4951511749       -1.5404225984
 C        -7.4075815781       10.3204029639       -0.2927228859
 C        -7.3716429862        8.8913694285        0.1405820490
 O        -8.2507254939        8.1403059074       -0.2700258435
 C        -6.2969766916        8.3490900129        1.1278955206
 C        -5.8555207049        6.9034645456        0.7685568116
 O        -6.4601744807        6.2634701724       -0.0791167181
 C        -4.7204536935        6.2292341320        1.5721838455
 C        -4.9927510467        9.2045302269        0.9706996438
 C        -6.8600486519        8.3711547402        2.6162545139
 C       -10.6774024614        9.5315698216       -3.4484691360
 C       -12.2188703622       10.5242786579       -1.7054745068
 C       -14.1841530909        5.8478491396        2.5071784711
 C       -12.2000111566        5.3342906209        4.1673758109
 C        -7.9244361730        0.8782095332        0.3088554624
 C        -6.5643745955        2.9853646281        0.4656632194
 C       -11.7333274320        0.0796499524       -4.5075495396
 C       -12.9943622724        0.6574536014       -2.3979497460
 C        -8.0394779376       -4.9773342219        0.0139674628
 C       -10.5323370281       -5.4792124699        0.1080605816
 H       -10.8747893579       -2.2446767539        2.5403960930
 H       -11.6530966690       -2.8682005570        1.1446476210
 H       -10.5052422277       -1.6154802175        0.9844750630
 H       -11.6036080903       -4.0210207695       -1.7180343868
 H       -10.2133968728       -4.5631143891       -2.7442003274
 H       -11.5105160141       -2.9234066996       -3.8818435055
 H        -9.9716089523       -2.2172720711       -3.5735581170
 H        -9.0329485997        0.7153319678       -4.0422427044
 H        -8.5376415003       -0.1799641428       -2.5940816614
 H        -7.7451819567        2.4482109724       -3.2893809832
 H        -7.0303588376        1.3293881358       -2.2266746554
 H       -10.3458700435        1.4107905529        1.3272639477
 H       -10.9944275814        2.7028350509        0.2432290667
 H       -10.8592277126        3.4844931514        3.2348768990
 H       -11.8534987687        2.0262103319        2.9756326024
 H       -13.2753031369        7.4400870085        1.0026380433
 H       -12.7229367709        6.3858503743       -0.0989357662
 H       -10.4548314977        7.9171820420        0.7054328656
 H       -11.7439344758        9.1082167772        0.6886829834
 H        -7.9495447840       11.3643116675       -2.0977327572
 H        -7.9778053397        9.6885523487       -2.2370160691
 H        -7.5822488077       11.0804153369        0.4565658274
 H        -6.3977726847       10.6923787968       -0.5711786401
 H        -4.0517186185        6.8165847623        2.2077027357
 H        -4.1452024484        5.5705138923        0.8293623736
 H        -5.2012673954        5.6117659007        2.2832849417
 H        -4.1120318979        8.9695016593        1.5934379444
 H        -5.2249634604       10.2562518130        1.1110509268
 H        -4.6493590172        9.0490881837       -0.0538574996
 H        -6.2133265078        7.8777789617        3.3036933543
 H        -7.7805029963        7.8796166578        2.6997919920
 H        -6.9806219709        9.3026178765        3.1375348131
 H       -10.0748663075        8.6619669838       -3.6565050838
 H       -10.1227288204       10.4162725917       -3.7119102970
 H       -11.6674766985        9.4155337013       -3.9052690010
 H       -12.1499194345       11.4530067955       -2.3190587480
 H       -12.3966244568       10.8241719449       -0.6491539753
 H       -13.0817029139        9.8432518139       -2.0005333608
 H       -14.6501549159        5.7091688633        1.5242822210
 H       -14.3285178036        6.9158565738        2.6642311265
 H       -14.6874422902        5.3524670713        3.3276219545
 H       -11.1777487075        5.2298897382        4.3110982016
 H       -12.7352635981        4.5923630410        4.7011512456
 H       -12.3472649015        6.1722996975        4.7883115089
 H        -8.1426380317        0.6683408518        1.3814532216
 H        -6.9999026458        0.3495689563        0.0067396857
 H        -8.7032629621        0.3197428372       -0.2363659590
 H        -6.3339649291        2.7846856500        1.5025386401
 H        -6.5165873057        4.0530148957        0.1244717086
 H        -5.8639571022        2.3413867404        0.0011326456
 H       -11.1043036683       -0.6212336088       -5.0514847899
 H       -11.4945346142        1.0538360787       -4.8748324524
 H       -12.6831660289       -0.1310290959       -4.8699276137
 H       -12.8714129389        1.7195193703       -2.2890363014
 H       -13.2527592979        0.1736721545       -1.4734707872
 H       -13.8750489533        0.4479661322       -2.9984360979
 H        -8.1950332627       -5.7758929100       -0.7297483499
 H        -7.7439207057       -5.3882632555        0.9367960873
 H        -7.3715922804       -4.2222291724       -0.3752584111
 H       -10.3597958620       -6.2524570066        0.9072196123
 H       -10.5233159130       -6.0837908202       -0.7878349638
 H       -11.5201680155       -5.0526691847        0.3118757022
 Na       -9.0586435417        5.8854068608       -0.0170278779
