117

 C       -10.8285604313       -2.5109805087        1.5855597036
 C        -9.8709762322       -3.6351965510        1.5461647094
 O        -9.0158772769       -3.7615693441        2.3953753925
 C        -9.7075591947       -4.4469672224        0.2115088233
 C        -9.7178445593       -3.5076162790       -1.0130141803
 O        -8.8687100629       -2.6369709829       -1.1260907624
 C       -10.8017388291       -3.5821214564       -2.1317813722
 C       -10.9350249218       -2.1944681845       -2.8997987821
 C       -11.5832150850       -1.1825935301       -2.0559137761
 O       -11.9366108150       -1.4081467454       -0.9424363685
 C       -11.7238618698        0.2823682714       -2.7109696626
 C       -10.5166040878        1.0697296800       -2.2233524604
 O       -10.6865272194        2.1683229898       -1.7522852446
 C        -8.9946719290        0.7202440404       -2.4713479733
 C        -8.0620540845        2.0020785285       -2.5662528301
 C        -8.3960422294        2.8232101594       -1.3438623758
 O        -8.5593414905        4.0189818747       -1.4173098358
 C        -8.1257488403        2.2942307650        0.0986456784
 C        -8.9981775400        2.9352179680        1.1747717785
 O        -8.6895673346        3.9959385951        1.7140021295
 C       -10.4137273690        2.3778080145        1.3884406812
 C       -11.2776161869        3.0279827381        2.4973609686
 C       -12.4548994585        3.9560154480        1.8932564817
 O       -12.9939005536        3.8236182274        0.8500383766
 C       -12.6072069367        5.3900333918        2.6576073922
 C       -11.5861321271        6.1655591745        1.7438486766
 O       -10.4481172545        6.1202863541        2.0379785955
 C       -12.1202376697        6.7127641117        0.4136096484
 C       -11.5481046297        8.1052104850        0.1057343171
 C       -10.8397089135        8.0708704902       -1.2205262336
 O       -10.2750286931        7.1008306904       -1.6210007701
 C       -10.8566202201        9.3347697497       -2.0757162858
 C        -9.7115572860       10.2638910320       -1.3194499005
 O        -9.9064227316       11.0062581078       -0.3461654288
 C        -8.2449563848       10.2002048572       -1.9857190912
 C        -7.1031110709       10.0722372577       -0.9310420379
 C        -7.4378300608        8.9398578689        0.0995806704
 O        -8.5364635954        8.3913715113       -0.0011112819
 C        -6.3609180996        8.4590685434        1.1947696064
 C        -5.8464946827        6.9945613881        0.8288406546
 O        -6.4418676236        6.3751826422       -0.0271614047
 C        -4.6133620965        6.4596225036        1.5435554865
 C        -5.1693595359        9.4718117363        1.2023559781
 C        -7.0895089395        8.3103736884        2.4754016142
 C       -10.4828071499        8.9902367955       -3.5461717064
 C       -12.1832880600       10.0896222893       -2.1478228466
 C       -14.0675844624        5.8140285011        2.5513576950
 C       -12.1947641765        5.3969786901        4.1245900183
 C        -8.0368982760        0.7483864931        0.4936995617
 C        -6.6013879689        2.8236072868        0.2031189734
 C       -11.7141482669        0.1766146844       -4.2305177685
 C       -13.0138703903        1.0816356281       -2.3356446340
 C        -8.3026886957       -5.1346415277        0.3200476408
 C       -10.7331467330       -5.6129509588        0.1178449204
 H       -10.8260546287       -2.1082559327        2.6035633079
 H       -11.8285573377       -2.8742047724        1.3160151818
 H       -10.5899323451       -1.8670400196        0.7678282168
 H       -11.7869091776       -3.9334820215       -1.7881742798
 H       -10.3818568186       -4.3528219659       -2.9034915064
 H       -11.5325578359       -2.3089006139       -3.7497505614
 H        -9.9583998760       -1.9286833644       -3.1783938639
 H        -8.8034855322        0.0613728284       -3.3326465978
 H        -8.6753502102        0.0985129452       -1.6699838583
 H        -8.2602576220        2.5212957791       -3.4937182144
 H        -6.9919703701        1.6713906641       -2.5914961436
 H       -10.2113275461        1.3140059755        1.6693245341
 H       -10.8887224786        2.4101519014        0.4001193171
 H       -10.7187840337        3.7178873140        3.0696948591
 H       -11.6606597212        2.3314032317        3.2482424701
 H       -13.2230905483        6.6551885799        0.4223954212
 H       -11.7473543074        6.0433260659       -0.4011137974
 H       -10.8781104488        8.3875613724        0.8887560577
 H       -12.3286800407        8.8785565595        0.0616516713
 H        -8.1701510712       11.0742401250       -2.5856929991
 H        -8.0745574593        9.3621850002       -2.6955697528
 H        -6.9572081500       11.1059533271       -0.5122715711
 H        -6.0436541646        9.9674093244       -1.3616407572
 H        -3.8162922170        7.1822888855        1.7090493660
 H        -4.1094006586        5.6053660160        0.9750478703
 H        -4.9113837253        6.2289783054        2.5297428042
 H        -4.3465021273        9.0790678607        1.8546929463
 H        -5.6096144198       10.4744072876        1.4231004610
 H        -4.7665572003        9.6031890253        0.1474147884
 H        -6.4540358961        8.0477274105        3.3068965955
 H        -7.8508448361        7.5457519628        2.5022113242
 H        -7.6407755557        9.2055751474        2.8017973186
 H        -9.6365628197        8.3311224251       -3.5229365017
 H       -10.2834972505        9.9428218787       -4.0180614124
 H       -11.3419891644        8.4500918972       -4.0124555090
 H       -12.2885192104       10.7750080464       -2.9087429657
 H       -12.3783598666       10.7092481949       -1.2853518843
 H       -12.9360322077        9.2939920716       -2.4328415412
 H       -14.4927272762        5.5504108007        1.5640553593
 H       -14.1494036809        6.9075890583        2.6231456768
 H       -14.6209324973        5.2959316137        3.3163716858
 H       -11.1251066076        5.3790990502        4.2789241677
 H       -12.5675331584        4.5579727219        4.7132532164
 H       -12.4420509640        6.2672187153        4.6137661932
 H        -7.7280749436        0.8105120376        1.5673539808
 H        -7.2840391939        0.1562681777       -0.0234686791
 H        -8.8675808469        0.1346706372        0.3003149344
 H        -6.2229758750        2.7430321985        1.2476814002
 H        -6.4960907189        3.8861009534       -0.1499268334
 H        -6.0875308580        2.1555844976       -0.4684161915
 H       -10.7367646382        0.1408621585       -4.7264830641
 H       -12.1045581676        1.1472523630       -4.6675778810
 H       -12.3682467975       -0.5777253368       -4.6454899439
 H       -12.9613198167        1.9938739696       -3.0017626768
 H       -13.0298354137        1.4324904801       -1.3181869965
 H       -14.0213247466        0.5556769521       -2.5231588151
 H        -8.2676893299       -5.6573276070       -0.6344732017
 H        -8.2780524265       -5.7854951810        1.1400100182
 H        -7.5269640456       -4.3828575975        0.3391772364
 H       -10.7030319304       -6.2768156761        1.0162523772
 H       -10.5455653501       -6.1778472751       -0.7691534627
 H       -11.7981276523       -5.3660158156        0.0660837826
 Na       -8.8048298920        5.9432407337        0.0178918892
