117

 C       -11.1367237577       -2.7441789544        2.0153130534
 C        -9.8994805382       -3.7570156630        1.7053793572
 O        -9.0632073096       -3.9345846850        2.5577303834
 C        -9.8313334984       -4.5081016073        0.3177038878
 C        -9.9381865453       -3.3954834958       -0.9217376786
 O        -9.0341044201       -2.5768083240       -0.9975687904
 C       -11.1993526625       -3.4658295785       -1.8310060881
 C       -11.2653153881       -2.1465535731       -2.7300581813
 C       -11.5463579453       -0.8010963402       -2.0068565773
 O       -11.6419515411       -0.7813144643       -0.7999449568
 C       -11.8677249753        0.5795690662       -2.7968082604
 C       -10.6982606961        1.4228858524       -2.2150307471
 O       -10.7633113021        2.1252393101       -1.2181857206
 C        -9.3879207615        1.3077810251       -3.0175147051
 C        -8.1831283772        2.1167368690       -2.4831512330
 C        -8.3863085991        3.0086595330       -1.2019323207
 O        -8.3689963350        4.2292977462       -1.2900634458
 C        -8.1692896810        2.2523198499        0.2350808674
 C        -9.1730913148        2.8155876958        1.2461394084
 O        -9.1394995585        3.9834309406        1.5977635634
 C       -10.2916425020        1.9361349179        1.8829057686
 C       -10.9198492608        2.8075229343        2.9464165501
 C       -11.8955930530        3.8040236647        2.2673527732
 O       -12.6136810821        3.2965735082        1.3722571863
 C       -12.2695230779        5.2295314235        2.6261264681
 C       -11.5463502732        6.2318208499        1.6021569539
 O       -10.5172154101        6.7959862503        1.9835359786
 C       -12.1001491152        6.5201362151        0.1964679786
 C       -11.6790522688        7.9115086218       -0.4313873477
 C       -10.8368146431        7.8529775290       -1.7160172968
 O       -10.0424178949        6.9221007707       -1.8517121360
 C       -10.5973648773        9.1459727412       -2.6925069627
 C        -9.4175985537        9.9822187957       -1.9784491385
 O        -9.7047465388       10.9539206451       -1.3289884313
 C        -8.0251430967        9.5529065603       -2.2226687504
 C        -7.1058152678        9.8412401534       -0.9989416026
 C        -7.4689191718        8.9574411786        0.1806879389
 O        -8.5588355882        8.3846718360        0.1529778645
 C        -6.4344854450        8.6112951259        1.2909203540
 C        -5.8422166972        7.2034976186        0.9000336995
 O        -6.5813534969        6.2665240731        0.6556310747
 C        -4.3295089319        7.0276133810        0.9578915825
 C        -5.3771039397        9.7228651103        1.5807827158
 C        -7.1771347228        8.4197590224        2.6698715983
 C       -10.1038507842        8.5059217894       -3.9851452061
 C       -11.8275956464       10.0471284378       -2.7721742479
 C       -13.9013883421        5.3034097904        2.6700187846
 C       -11.8184747512        5.6916800436        4.0745601557
 C        -8.1358683359        0.7428127376        0.1399025156
 C        -6.7662115836        2.8083511649        0.7778434546
 C       -11.7756909168        0.2989723424       -4.2949941437
 C       -13.1938484367        1.2943585865       -2.4778492766
 C        -8.3815867024       -5.1762073369        0.1358258869
 C       -10.9645811604       -5.5457422483        0.1384780825
 H       -11.1528969854       -2.7389695566        3.0915321052
 H       -12.0472427134       -3.1894117473        1.6157088945
 H       -11.0539410080       -1.7137354059        1.5502046078
 H       -12.1849177560       -3.6232070746       -1.2944267052
 H       -10.9576928381       -4.3455443057       -2.4912295916
 H       -12.0997619072       -2.3762899039       -3.3712352587
 H       -10.4119587531       -2.0788520059       -3.2775087781
 H        -9.6590605518        1.5002567033       -4.0580138719
 H        -9.1005575536        0.2689925566       -2.9901886140
 H        -7.8331147371        2.8087970491       -3.2931182510
 H        -7.4142146888        1.4314049153       -2.2039519968
 H        -9.9480685404        0.9570547215        2.2832546252
 H       -11.0126276990        1.7074990346        1.0965077653
 H       -10.2576611916        3.3329773397        3.6348250397
 H       -11.5316296851        2.1577220922        3.5694775448
 H       -13.1949043301        6.5369972848        0.2425088153
 H       -11.7284487196        5.6471938358       -0.3714951235
 H       -11.0983907889        8.5217082161        0.2883964505
 H       -12.5527629849        8.4973415492       -0.5773852256
 H        -7.6018919781       10.0661909062       -3.0768639620
 H        -7.9587558478        8.4738881719       -2.3309408932
 H        -7.2108218166       10.9506703510       -0.7548291409
 H        -6.0775413171        9.6766713393       -1.4236193563
 H        -3.8757531062        7.2003615218       -0.0250007662
 H        -3.9694069436        6.0933639719        1.2418870210
 H        -3.8434146896        7.7134422078        1.7191428207
 H        -4.9033110221        9.4978806609        2.5498852756
 H        -6.0367024934       10.5317255467        1.9791924945
 H        -4.7513854876        9.9821622905        0.6997422163
 H        -6.4783554278        8.0940331292        3.4553628125
 H        -7.8698190316        7.5518995019        2.6955451535
 H        -7.7286922609        9.2814724681        3.0515349616
 H        -9.0612875087        8.2393633822       -3.9011105081
 H       -10.2525474360        9.2654204570       -4.7477569661
 H       -10.7196754201        7.6983790977       -4.3325392532
 H       -11.6477988991       10.9432498771       -3.4150420415
 H       -12.0522690418       10.3671512955       -1.7566607228
 H       -12.6982728791        9.5939275261       -3.1853773136
 H       -14.2945116304        5.1260883065        1.6838808106
 H       -14.2697733594        6.1858628237        3.1960722017
 H       -14.3151285354        4.4452384718        3.2011169983
 H       -10.8253171526        5.5780339774        4.3877155759
 H       -12.2270073332        5.0767360658        4.8135096447
 H       -12.2378221119        6.6711245873        4.2522130086
 H        -8.1134843825        0.3630645367        1.1639605892
 H        -7.2153736561        0.3356394056       -0.2676197784
 H        -9.1018050484        0.3441482425       -0.2182148726
 H        -6.5474995763        2.4059516550        1.7767875063
 H        -6.7876552219        3.8572539329        0.9241231388
 H        -6.0128311613        2.5411567043       -0.0028270316
 H       -10.8004109397       -0.0158010740       -4.6788134745
 H       -12.1919397743        1.1073205920       -4.9244747830
 H       -12.4467843351       -0.6092878021       -4.4920363496
 H       -13.2914482398        2.3830515325       -2.6744075200
 H       -13.3504048471        1.2020108417       -1.3504834514
 H       -13.9683613477        0.8280085058       -3.0790321087
 H        -8.4572604602       -5.7905057303       -0.7311659611
 H        -8.1591125484       -5.7772536293        1.0389874509
 H        -7.6455087729       -4.3875311685        0.0443539117
 H       -11.0628738806       -6.1378349644        1.0225287547
 H       -10.8576406546       -6.3253480639       -0.6235727581
 H       -11.9626563463       -5.1072025108       -0.0234011804
 Na       -8.9161138260        5.9137191822        0.0801944775
