117

 C       -11.3732719126       -3.2969756856        2.5311968790
 C       -10.1674286584       -3.5078960409        1.7175837082
 O        -9.0936046269       -3.1439928160        2.1264240528
 C       -10.2522464591       -4.0746713935        0.1721237785
 C       -10.5866470722       -2.8415016499       -0.6810589661
 O        -9.7343736209       -2.0709358902       -1.1698462792
 C       -12.1084462319       -2.6670071869       -0.9922786759
 C       -12.4173831379       -1.4429386968       -1.8026963692
 C       -12.0345111614       -0.0728197339       -1.1935525747
 O       -11.7552362387        0.0448199404       -0.0283446190
 C       -11.9143562716        1.2508222610       -2.1360812183
 C       -10.4892304228        1.9047835018       -1.9526026583
 O       -10.3529794726        3.0834290136       -1.7458099852
 C        -9.2340448408        1.0012292617       -2.0974068668
 C        -7.9284694947        1.7906705369       -1.9372654449
 C        -7.9815077874        2.6739360646       -0.6549447253
 O        -7.7963874495        3.8730765116       -0.7163327048
 C        -8.0809453993        2.0127922634        0.8159618234
 C        -9.1176028017        2.7941938983        1.7516825739
 O        -8.7923241541        3.8148114052        2.3513514572
 C       -10.5884267753        2.2214626229        1.7882120232
 C       -11.6228531925        2.6670924914        2.7945957979
 C       -12.5556898302        3.6580393414        2.1481320563
 O       -13.5541924851        3.2707794075        1.5348269325
 C       -12.2213326255        5.2096294898        2.3358860839
 C       -11.1566536633        5.6280102562        1.3103334517
 O       -10.0469498239        5.9052242129        1.6869335350
 C       -11.5114463996        5.6569298077       -0.1810261980
 C       -11.2865712744        7.0790417752       -0.8748831754
 C       -10.3054424092        7.0017570249       -2.0043475688
 O        -9.3092686062        6.3181418701       -1.8955227320
 C       -10.3309194703        7.9923186075       -3.2398347867
 C        -9.3076193596        9.1236018958       -2.8478767658
 O        -9.6577582367       10.2441242722       -2.5651745894
 C        -7.7728190521        8.7698131085       -2.7683665070
 C        -7.0263797361        9.4302535568       -1.6440538722
 C        -7.4545493515        8.8778146232       -0.2998145265
 O        -8.5491544621        8.3659831374       -0.1393669530
 C        -6.5269357761        9.0123825999        0.9415429721
 C        -5.5842931223        7.8178999159        0.8766885637
 O        -5.8760876289        6.7598903914        0.3237800170
 C        -4.2261608648        8.0230473959        1.4592301998
 C        -5.8318883160       10.4364292841        0.9207205195
 C        -7.4190530833        8.7462201562        2.2109552131
 C        -9.9376473201        7.1047464259       -4.5287270934
 C       -11.7221048035        8.7442332419       -3.5050917869
 C       -13.5964806004        5.9358453957        2.0815068423
 C       -11.7129286641        5.4956726598        3.7023449260
 C        -8.2929858976        0.4584209207        0.8366786582
 C        -6.6953377680        2.2641437146        1.4264420630
 C       -12.1328863902        0.9591607658       -3.6256586284
 C       -12.8871878372        2.4179524250       -1.7422343510
 C        -8.8462455399       -4.5041186415       -0.3262179366
 C       -11.2781308366       -5.2247542592        0.1877864737
 H       -11.1511100398       -2.8273846874        3.4967836085
 H       -11.9783690237       -4.1979451718        2.7480442254
 H       -12.0513943622       -2.6551826470        1.8319129926
 H       -12.6912608906       -2.7474240430       -0.0546291861
 H       -12.2440042970       -3.6058571854       -1.6181145052
 H       -13.5176526996       -1.4475250242       -1.9787722679
 H       -12.0033102530       -1.5968728366       -2.7153257538
 H        -9.3118757131        0.5971479148       -3.0865194596
 H        -9.3123154494        0.1537513024       -1.4372023810
 H        -7.8329547685        2.3756365804       -2.8756708396
 H        -7.0169467890        1.1266838428       -1.8791273347
 H       -10.4156281093        1.1261116978        1.8484487067
 H       -11.0102096055        2.3670275597        0.7589560610
 H       -11.1745892755        2.9388664560        3.7146174225
 H       -12.2905259533        1.8354562817        2.9540066581
 H       -12.5272457100        5.2593472319       -0.4429157818
 H       -10.8193924846        4.8967880909       -0.6778837558
 H       -10.8299658017        7.8079965869       -0.2083616123
 H       -12.2874572825        7.4934430609       -1.1523709554
 H        -7.3702019126        9.1011160437       -3.6942657219
 H        -7.6019629157        7.6800428677       -2.9143584972
 H        -7.1712792808       10.5315048122       -1.5555106661
 H        -5.8910002185        9.2091436850       -1.8161958065
 H        -3.7630165649        8.8077069787        0.8796053940
 H        -3.6369132740        7.1676397199        1.3650808044
 H        -4.2185550415        8.5176002942        2.4503188681
 H        -5.4281216694       10.7079341023        1.8605252585
 H        -6.6220087386       11.1444564639        0.9130048307
 H        -5.1935216441       10.5803526889        0.1059320271
 H        -6.6887704843        8.6033926166        2.9932640505
 H        -7.9359013872        7.7723507993        2.1227265215
 H        -8.1646311186        9.4839323298        2.4685596493
 H        -9.5177779826        6.1434397651       -4.2439210802
 H        -9.2574463717        7.5378358277       -5.2613614604
 H       -10.8069011756        6.9153536734       -5.1747552172
 H       -11.8764671813        9.1839112779       -4.4873452367
 H       -11.8785083505        9.4895709444       -2.7493299436
 H       -12.5307076749        8.0775887962       -3.5758290292
 H       -14.0203759941        5.5462212820        1.1647471175
 H       -13.5158622942        7.0430339424        2.0452393925
 H       -14.2978964076        5.6146378500        2.8493440545
 H       -10.7997553611        4.8870535381        3.8685953874
 H       -12.3470977625        5.2038172320        4.5455862675
 H       -11.5753640742        6.6556786737        3.6813879185
 H        -8.0507649379        0.0771600987        1.8667149303
 H        -7.6661765547       -0.0745932427        0.1471540196
 H        -9.3539983341        0.3558203212        0.5916303002
 H        -6.7061518066        2.0080453875        2.5052652892
 H        -6.5422909678        3.2971441986        1.5110340608
 H        -5.9182375912        1.7438851593        0.8469896311
 H       -11.6564588806        0.0844353799       -3.9424214222
 H       -11.7310042119        1.8059278775       -4.2101830494
 H       -13.2137888323        0.8861840932       -3.8377408802
 H       -12.5295004799        3.3525203148       -2.0561592228
 H       -12.9359493453        2.3827253827       -0.6444678053
 H       -13.8231687701        2.2584560687       -2.1562904760
 H        -8.8797817314       -4.8659078694       -1.3439532131
 H        -8.4371302417       -5.2756434637        0.3492773624
 H        -8.1974295561       -3.6245556710       -0.2748026031
 H       -11.0113700062       -5.9994699895        0.9263913940
 H       -11.3868321654       -5.6811320340       -0.7835185919
 H       -12.2579198351       -4.8018499257        0.4860010462
 Na       -8.2872264911        5.8366746615        0.1723904676
