117

 C       -11.1733187510       -3.4055566395        2.7066956772
 C       -10.1559175491       -3.2978987995        1.6213111083
 O        -9.1654146873       -2.6398957457        1.7881039530
 C       -10.3562826489       -3.9078082475        0.1801441099
 C       -10.8719026963       -2.7168919945       -0.6566912682
 O       -10.1746906554       -1.8220919247       -1.1614443897
 C       -12.3543296389       -2.5979052457       -0.9612261279
 C       -12.5097755232       -1.3938305579       -1.8642013737
 C       -12.0278607700       -0.1022447769       -1.1667481233
 O       -12.0513111834        0.0995287489        0.0132697166
 C       -11.9392432040        1.3248133472       -2.0781672715
 C       -10.5184128202        1.9257800536       -1.9647430725
 O       -10.3412072244        3.1105246225       -1.7524567189
 C        -9.3027344841        1.0239274439       -2.0905518140
 C        -7.9118806612        1.4759373473       -1.5745752691
 C        -7.8856146869        2.5052557624       -0.4622064290
 O        -7.5528934363        3.6668438268       -0.6008880449
 C        -7.9884792165        1.8995737328        1.0845028379
 C        -9.1520930722        2.6192681708        1.9704309304
 O        -8.8882501543        3.5676079992        2.7196942936
 C       -10.5998461656        2.0637206815        1.9939322703
 C       -11.4661259236        2.9104955932        2.9129475655
 C       -12.3535036386        3.8580204794        2.1056224771
 O       -13.2738793733        3.3930486562        1.4166588885
 C       -12.2313358925        5.4429964175        2.2597163557
 C       -11.1113809066        5.6758654729        1.2156787175
 O        -9.9154949040        5.7361446378        1.5011483404
 C       -11.5454007604        5.6214020821       -0.3082973670
 C       -11.2353863947        6.9642179546       -1.0392935249
 C       -10.2269150408        6.7621494689       -2.1542656834
 O        -9.2835462112        6.0659884559       -2.0518725977
 C       -10.2646991373        7.7965264210       -3.3764608705
 C        -9.4533102314        9.0783045762       -2.9297092183
 O        -9.8505395003       10.1590821132       -2.5691389610
 C        -7.8327480405        8.7966316404       -2.9420366871
 C        -7.0916513847        9.4420735674       -1.8523429627
 C        -7.3909845660        8.8095883161       -0.4832217642
 O        -8.3945724671        8.1153712103       -0.4137269912
 C        -6.4954150328        9.0178059513        0.7347689069
 C        -5.5088087850        7.7893399318        0.9122417292
 O        -5.8820169813        6.6435164349        0.7025234543
 C        -4.1844096762        8.1032638228        1.5554052480
 C        -5.8468086588       10.4016420529        0.6579089819
 C        -7.4520222298        8.9898824461        2.0414676558
 C        -9.7029598446        7.1672568497       -4.7046975173
 C       -11.7466717892        8.3227198050       -3.6078050996
 C       -13.5755022977        6.0636940173        1.9104984017
 C       -11.7885452049        5.7176317655        3.7463565571
 C        -8.1503242296        0.3423339408        1.1349611476
 C        -6.7325803125        2.3938504417        1.7833674220
 C       -12.1695330477        1.1826283896       -3.5909670556
 C       -13.0383450063        2.2119504222       -1.4162776706
 C        -8.9392364949       -4.3568217060       -0.3016994291
 C       -11.3310173518       -5.0656891296        0.0775080227
 H       -11.1309738687       -2.5517726847        3.3090072904
 H       -11.0066519612       -4.1911552489        3.3540448811
 H       -12.1098723821       -3.6998860777        2.2440594751
 H       -12.8807031617       -2.3235236931       -0.0399587438
 H       -12.7015097192       -3.5370908005       -1.3647096552
 H       -13.5798455341       -1.3286339737       -2.0214896963
 H       -12.0376148740       -1.4991861788       -2.7984565056
 H        -9.2420945779        0.7464016442       -3.1430060207
 H        -9.4638085319        0.0198979052       -1.5865187302
 H        -7.4202308430        1.9065872565       -2.4244246550
 H        -7.4476103326        0.5410605808       -1.2029819725
 H       -10.5072287634        1.0721713920        2.4264469134
 H       -11.0464184155        1.9341526284        0.9971566589
 H       -10.8278983018        3.4271186178        3.6269915096
 H       -12.0817555366        2.1915652768        3.4865660113
 H       -12.5567291205        5.3321954954       -0.4968476002
 H       -10.9740346684        4.8390842473       -0.7527792296
 H       -10.8362655960        7.6514562152       -0.2980265249
 H       -12.1751270988        7.4414064612       -1.3880761570
 H        -7.4782207948        9.1139023784       -3.9205723969
 H        -7.7048811024        7.7163675838       -3.0168593966
 H        -7.3614704898       10.4971550916       -1.7750953610
 H        -6.0111254038        9.5182203789       -1.9981682494
 H        -3.8602296829        9.1658851151        1.4030956481
 H        -3.3970650604        7.5297526711        1.1745880779
 H        -4.2860028156        8.0090153182        2.6767681946
 H        -5.3045342949       10.7311297164        1.5770553822
 H        -6.6262606955       11.2109510450        0.6557666639
 H        -5.2466775077       10.5142236841       -0.2719762367
 H        -6.9417461749        9.2316823440        2.9638908521
 H        -7.9069738883        7.9890951582        2.1698131901
 H        -8.2547309503        9.7175451068        1.8590217946
 H        -8.6483556269        6.9761236644       -4.7022895946
 H        -9.9046445497        7.7410166003       -5.5901607133
 H       -10.1586473645        6.1787511466       -4.8834549106
 H       -11.8065894539        8.9932747268       -4.4624356272
 H       -12.0762407550        8.9524672445       -2.7529897037
 H       -12.5324097457        7.5373600434       -3.8495684691
 H       -13.6920922925        5.7558075797        0.8764079531
 H       -13.6696379928        7.1320451222        2.1086269971
 H       -14.3860924628        5.6196048022        2.4727938973
 H       -10.8024448395        5.3838296938        3.9963686159
 H       -12.4475012568        5.1609572141        4.3391630698
 H       -11.8768326906        6.7926792259        3.9364671635
 H        -8.2986275762        0.0280085627        2.1894337121
 H        -7.2536529869       -0.1185938610        0.7482503129
 H        -9.0592329115        0.0788396687        0.6888987393
 H        -6.6886611802        2.1130763397        2.8494615841
 H        -6.6378665977        3.4537923814        1.9044057486
 H        -5.9018538242        1.9442655691        1.2423339144
 H       -11.2944348941        0.8244239320       -4.0748634810
 H       -12.5462570076        2.1433665263       -4.0709940840
 H       -12.8843177007        0.3873370171       -3.7809943652
 H       -13.0999157615        3.2458354741       -1.8272592128
 H       -12.8166565783        2.2783971036       -0.3222049334
 H       -13.9917361777        1.7067668548       -1.6750228599
 H        -8.9985821552       -4.6693016996       -1.3511929431
 H        -8.5177896559       -5.1614064590        0.2723820382
 H        -8.2759146881       -3.5003236741       -0.1865355532
 H       -10.9935841083       -5.9080761291        0.7082511705
 H       -11.4791882701       -5.4507229017       -0.9092969675
 H       -12.2588333968       -4.6155932085        0.4168623002
 Na       -8.0357490055        5.8574813633        0.1184636669
