117

 C       -10.9272983380       -3.8632279499        2.8759732679
 C       -10.4814121551       -3.2907917130        1.4749928854
 O       -10.2339615992       -2.1096185058        1.3295673724
 C       -10.7261535055       -4.0907629326        0.2208222275
 C       -11.2765045256       -3.0953009328       -0.9004479512
 O       -10.5804864454       -2.8687886340       -1.8331511927
 C       -12.7057870736       -2.6160934042       -0.7000526316
 C       -13.0872209746       -1.4260022408       -1.6308019244
 C       -12.5733046100       -0.0294471254       -1.0850204386
 O       -12.5395438851        0.3006698744        0.0826295611
 C       -11.9960354928        1.0307259228       -2.2172812462
 C       -10.6744550667        1.5762585634       -1.6105432560
 O       -10.4968462513        2.7622237788       -1.4715961321
 C        -9.5442637442        0.6476146194       -1.1821290902
 C        -8.1437316480        1.3265055482       -1.0430672916
 C        -7.9554125778        2.4374758076       -0.0956809809
 O        -7.6275798972        3.5613794013       -0.4669207941
 C        -7.8743467421        2.1262080682        1.5025647956
 C        -9.0349186787        3.0233062661        2.1536297663
 O        -8.9919696835        4.2434583339        2.0920896842
 C       -10.2710881752        2.3968382414        2.7487739583
 C       -11.2759717048        3.3410437926        3.3270063409
 C       -11.9314280117        4.2136221633        2.3027707042
 O       -12.4964900845        3.7068373190        1.3297061328
 C       -12.0375414229        5.7876100421        2.3808586164
 C       -11.0669519046        6.1696055528        1.2666841668
 O        -9.9896591781        6.7268598860        1.5453234771
 C       -11.3247455769        5.7788673885       -0.1971204695
 C       -10.9529827207        6.9255792463       -1.1664395673
 C        -9.8654365554        6.5754860040       -2.2126409487
 O        -9.0349584392        5.6587223852       -2.0368312604
 C        -9.7967377660        7.4512520281       -3.5631366448
 C        -9.2922934519        8.8869651280       -3.1048691081
 O       -10.0463905750        9.6510365042       -2.5790192979
 C        -7.7375190786        9.2291424033       -3.3830015446
 C        -7.0481904144        9.7606023760       -2.1053102894
 C        -7.3192887753        8.8609095907       -0.8558349087
 O        -8.1243968673        7.9672262549       -1.0200515268
 C        -6.5002712777        9.1761124886        0.4198457160
 C        -5.7445414420        7.8700904883        0.9230011047
 O        -6.3497609824        6.8312727536        1.0751622426
 C        -4.2332707934        7.9084417104        1.1109036471
 C        -5.4471317660       10.3262697029        0.1926717435
 C        -7.5744556758        9.5041760760        1.5661107864
 C        -9.0372729061        6.6099399067       -4.6468791581
 C       -11.2670695181        7.7156620829       -4.0833692505
 C       -13.4703216640        6.1644357863        2.1854627167
 C       -11.5076084811        6.3259483511        3.7760369687
 C        -7.8575317717        0.6605102016        1.8817552294
 C        -6.5581440745        2.8535096084        1.9920076496
 C       -11.7359919570        0.4308120275       -3.6436256290
 C       -12.9002154416        2.2769046768       -2.3023923092
 C        -9.3709064623       -4.6686038049       -0.4073351341
 C       -11.5802850444       -5.3519103906        0.3773582773
 H       -10.2288381135       -3.4050324862        3.6545157470
 H       -10.9549955129       -4.9911490855        2.9059271824
 H       -11.8864869565       -3.4240184193        3.1189882238
 H       -12.9909340984       -2.5526498686        0.3051421067
 H       -13.2673511029       -3.4978658254       -1.1153678622
 H       -14.1082383563       -1.3950327668       -1.8288607457
 H       -12.5528810481       -1.6725728398       -2.5654895533
 H        -9.5205264261       -0.1492990795       -2.0095747963
 H        -9.6908301393        0.1658192919       -0.2250518000
 H        -7.7470147099        1.5565735531       -2.0429682816
 H        -7.4661894129        0.5805076936       -0.7178518562
 H       -10.0573926047        1.6581624523        3.5027686157
 H       -10.7778575483        1.9526663920        1.9130886729
 H       -10.7947322824        3.9210704671        4.1570316996
 H       -12.0752285614        2.7274663250        3.8479834441
 H       -12.3531198066        5.5892374564       -0.3519683799
 H       -10.8024597513        4.8772373087       -0.4708455229
 H       -10.6604233122        7.7948601396       -0.5803898729
 H       -11.8331674320        7.2404995024       -1.7447391404
 H        -7.7609323634       10.0752306749       -4.0557453650
 H        -7.3316139523        8.2630720423       -3.7213486670
 H        -7.3663209423       10.7395345723       -1.8599458770
 H        -5.9931124673        9.9747124498       -2.2233350689
 H        -3.6772125092        8.2690309130        0.2378645595
 H        -3.8656517927        6.8933105322        1.4355303805
 H        -3.9337687027        8.4676351252        1.9746356883
 H        -4.7466250598       10.5160189755        1.0271949165
 H        -5.8561014268       11.3498866180        0.0402988135
 H        -4.7310232581       10.1876909065       -0.6492370045
 H        -7.0381286270        9.6197609404        2.5441007426
 H        -8.3373287798        8.7316528523        1.5086412574
 H        -8.1009708684       10.4470753126        1.2793042215
 H        -8.0023089949        6.4734036179       -4.2783773371
 H        -9.0019167567        6.9842618470       -5.6989654169
 H        -9.4631010125        5.6104294637       -4.6776536892
 H       -11.0938346507        8.2200969566       -5.0624482247
 H       -11.7923716360        8.3523046198       -3.3660833991
 H       -11.7786163106        6.7871241367       -4.3064449969
 H       -13.7308775895        6.2661155336        1.1346536289
 H       -13.6063665760        7.1595614909        2.6032904335
 H       -14.0458176155        5.3229526599        2.5681759862
 H       -10.5076641273        5.9755005639        3.8619461431
 H       -12.1763780034        6.0034239292        4.5607247260
 H       -11.5391039510        7.3442580097        3.8213419523
 H        -7.4990979889        0.5865793255        2.8999556125
 H        -7.1159080508        0.0537917851        1.3328120795
 H        -8.7746376543        0.0695826843        1.6663870169
 H        -6.3558437237        2.7706325392        3.0155052556
 H        -6.5661265765        3.8506293372        1.5662943688
 H        -5.6384820658        2.4878393074        1.5650279154
 H       -11.3421781104       -0.6313871001       -3.5834764052
 H       -11.0171277949        0.8958932906       -4.2559892331
 H       -12.6543097476        0.4841164351       -4.2583333295
 H       -12.5951464984        2.8741836390       -3.1529723852
 H       -12.8388240086        2.8062841952       -1.4054126165
 H       -13.9543972187        2.0342755124       -2.3889684320
 H        -9.4318227582       -5.1810899844       -1.3601246842
 H        -8.8427696349       -5.3342452414        0.3298452359
 H        -8.6824306775       -3.8398604473       -0.6091841189
 H       -11.0827794757       -6.0205252043        1.0306567813
 H       -11.7802378017       -5.8171453370       -0.5929792535
 H       -12.5004736378       -5.1408007972        0.9067972454
 Na       -8.2375638913        5.6677723649        0.3677930413
