117

 C       -10.6385231861       -4.3655757464        2.7380975907
 C       -10.7434039585       -3.4664091281        1.4417885713
 O       -10.3782752787       -2.3130718223        1.4953550691
 C       -11.2214793598       -4.2909328418        0.1922771584
 C       -11.8853730811       -3.3765704229       -0.9892903919
 O       -11.2068700480       -3.1387344081       -1.9433999982
 C       -13.3490821256       -2.7811269582       -0.8146847804
 C       -13.4912136890       -1.4170333701       -1.5928702381
 C       -12.4825466461       -0.3100220423       -0.9789844869
 O       -12.1995093654       -0.2834973138        0.1806639474
 C       -11.7332411626        0.6485037317       -2.0135839310
 C       -10.6441722023        1.5064725597       -1.2674717260
 O       -10.5697853148        2.6785729629       -1.3965743913
 C        -9.6160175596        0.7685934871       -0.4398849306
 C        -8.1493906262        1.2737554572       -0.6424081592
 C        -7.7889801647        2.6143583102        0.0119667700
 O        -7.6161611645        3.6380907249       -0.6558410356
 C        -7.8182974197        2.5895475430        1.5605630427
 C        -9.1544209379        3.3440747029        1.9526329392
 O        -9.3892342825        4.3657373409        1.3858521813
 C       -10.1237234891        2.8510311152        3.0011835011
 C       -10.8699691420        4.0206080973        3.5807999289
 C       -11.9141109025        4.5964379402        2.6367203957
 O       -12.5398254777        3.9087916490        1.8225221372
 C       -12.1472100083        6.2246016599        2.4832047125
 C       -11.2324075192        6.4996786619        1.1569742185
 O       -10.0754614463        6.8991026156        1.2613049540
 C       -11.7817170369        6.2392006069       -0.1988753846
 C       -11.1868093390        7.1884805885       -1.3343752732
 C       -10.1411248321        6.5218293801       -2.2700100608
 O        -9.5961194883        5.5086250895       -1.8520756701
 C        -9.5735819263        7.1915020324       -3.5461805499
 C        -9.2043755915        8.6625917503       -3.2174433445
 O        -9.9284786126        9.4880971649       -2.7712991704
 C        -7.7164157048        9.1364533102       -3.4436897832
 C        -7.0368307944        9.7247878347       -2.1546184659
 C        -6.9934855966        8.6515228541       -1.0816779414
 O        -7.4066508608        7.5447304376       -1.3319402154
 C        -6.3476639897        9.1305382160        0.3098965468
 C        -5.3705608320        7.9142594208        0.7573396291
 O        -5.8086283980        6.7850932268        0.8765225884
 C        -3.9224391299        8.2180552294        1.0477132644
 C        -5.6054030729       10.4677929040        0.1397537024
 C        -7.4202598972        9.1631164867        1.4052503281
 C        -8.4888704488        6.2149052133       -4.1381863700
 C       -10.7483246456        7.3721696977       -4.5753777185
 C       -13.6115612324        6.5416300286        2.1447310622
 C       -11.5655544491        6.9756120878        3.7538552312
 C        -7.6647020810        1.1612662873        2.1343779313
 C        -6.6002280281        3.5174876902        1.9909461199
 C       -11.0132800157       -0.1858505195       -3.2014660787
 C       -12.7527960824        1.6110375149       -2.7228315435
 C        -9.8707208225       -4.8126491049       -0.3661244388
 C       -12.1385623317       -5.4284464300        0.5094305290
 H       -10.3811185764       -3.7708230540        3.5768636873
 H       -10.0093162723       -5.1933634173        2.5390765632
 H       -11.6212493450       -4.5369137043        2.9528172455
 H       -13.5587031231       -2.6184278725        0.2372320431
 H       -14.1535081898       -3.4844491877       -1.1282204447
 H       -14.5575014539       -1.0910366077       -1.6808681256
 H       -13.2074751356       -1.6428902842       -2.7382906642
 H        -9.6391197938       -0.2875342653       -0.6933750248
 H        -9.8123288064        0.8716438054        0.6033597745
 H        -7.9191335098        1.4113818985       -1.7504420672
 H        -7.4388443188        0.4861899841       -0.2623526248
 H        -9.5689849914        2.3018372613        3.8136669475
 H       -10.8794189238        2.0971206965        2.6514857865
 H       -10.1283391433        4.7321543932        3.8031398258
 H       -11.4516937645        3.7836291623        4.4341525887
 H       -12.8583820842        6.2717834662       -0.2999126097
 H       -11.5017106700        5.1793067037       -0.3735850552
 H       -10.6788944069        8.0607728003       -0.9119231064
 H       -12.0682993820        7.5934325394       -1.9089206238
 H        -7.6817355990        9.9665216121       -4.1384901601
 H        -7.1081700446        8.3210895798       -3.9304077933
 H        -7.5965773533       10.5820676340       -1.7168760312
 H        -5.9970779627       10.0836954902       -2.4597492797
 H        -3.3223687827        8.3814509602        0.1507352008
 H        -3.5511565385        7.3200242474        1.5867471504
 H        -3.7102073532        9.1270999533        1.5717296238
 H        -5.3150867421       10.9619769590        1.0923070743
 H        -6.1000723108       11.3009496134       -0.4291436476
 H        -4.7345232461       10.2630445114       -0.5287829841
 H        -6.9425684321        9.2837718424        2.4080730123
 H        -7.9127211675        8.1956290086        1.4282960062
 H        -8.0537218745       10.0212620079        1.1402016618
 H        -7.6408961588        6.1666959120       -3.4546286768
 H        -8.2250702549        6.5577707808       -5.1552583616
 H        -8.8904339944        5.2090061007       -4.1387991919
 H       -10.4647964745        7.9467556315       -5.5062469131
 H       -11.6072539731        7.9124667780       -4.1679723200
 H       -10.9559102861        6.3489619465       -4.8127681179
 H       -13.9325286402        5.9665128431        1.2600200481
 H       -13.8214507570        7.6357364687        2.0533899257
 H       -14.2819863633        6.2649287664        2.9844418480
 H       -10.5652270036        6.6873183442        4.1008689785
 H       -12.2310014368        6.7415484403        4.6199739411
 H       -11.5297655937        7.9978714623        3.5675226337
 H        -7.2065626140        1.1310028476        3.0832976224
 H        -7.0431802589        0.6017145676        1.4875785742
 H        -8.5855275374        0.6095563884        2.4011602730
 H        -6.6644491230        3.9093380615        2.9643691488
 H        -6.7826027873        4.4925614565        1.5154354105
 H        -5.6309581035        3.1437689100        1.6857690915
 H       -11.1936118192       -1.2938185749       -3.1504912808
 H        -9.9789065616        0.0096689635       -3.2736720461
 H       -11.4941175696       -0.0062827366       -4.1873430710
 H       -12.3551329008        2.0164248695       -3.7114403108
 H       -13.0316547889        2.5208679370       -2.1933041688
 H       -13.6386351834        0.9706221496       -3.0064593530
 H        -9.8536634225       -5.3779810162       -1.2876958954
 H        -9.3006042990       -5.4505530819        0.3693034278
 H        -9.1812561631       -3.9744225417       -0.5000135256
 H       -11.6236124836       -6.1898110459        1.0389523367
 H       -12.6252700641       -5.9062622310       -0.3254214522
 H       -12.9664774646       -5.0061567343        1.0834354235
 Na       -8.1193275204        5.8360019786        0.1655316212
