117

 C       -10.4478346051       -5.2317570574        2.5126977338
 C       -10.8453982338       -4.4843593926        1.2021152746
 O       -10.2797356204       -3.4562008426        0.9262655267
 C       -11.9747284058       -5.0267960449        0.3293034011
 C       -12.2999259379       -3.9415461225       -0.7454934784
 O       -11.8219704027       -3.9193611130       -1.8764218779
 C       -13.0838044396       -2.7428681404       -0.2774728385
 C       -13.0815441128       -1.6492161044       -1.3983085062
 C       -12.3333569222       -0.4117188580       -0.9671715140
 O       -12.3594262634       -0.1278739628        0.2119300690
 C       -11.5834446365        0.5061627059       -1.9442303011
 C       -10.6178807590        1.3506503575       -1.0356410557
 O       -10.4619355106        2.5018133451       -1.2199477559
 C        -9.8101389819        0.6156474928        0.0988593908
 C        -8.4562934638        1.1655837800        0.4430992092
 C        -8.2688537322        2.6637898664        0.8287196054
 O        -8.2246482506        3.5256647509       -0.0161829983
 C        -7.9821210660        3.0717356531        2.3507180885
 C        -8.9724494287        4.2572090279        2.7592637048
 O        -8.9125863268        5.3967665449        2.2935383721
 C       -10.1772565521        3.8641156502        3.6230461172
 C       -11.2344288326        4.9774962782        3.7280366444
 C       -11.7638855846        5.4563250284        2.3313509297
 O       -12.4074999746        4.6622282502        1.6339932884
 C       -11.6218081503        6.9470493732        1.8022954178
 C       -10.9299374917        6.7493919775        0.3865104388
 O        -9.8743509779        7.3377145819        0.2240978079
 C       -11.5518804415        5.7755674313       -0.5923336407
 C       -11.4499020811        6.3416251835       -2.0890005807
 C        -9.9904619576        6.3366332682       -2.6759872547
 O        -9.1358446375        5.6762852444       -2.1069357900
 C        -9.6917252622        7.1021230345       -3.9870858646
 C        -9.2112132175        8.4750628050       -3.3752492735
 O        -9.9215891889        9.1673096682       -2.5686288065
 C        -7.7409281504        8.9356979281       -3.6778857234
 C        -7.1906087136        9.5577562044       -2.4090879249
 C        -6.7758518531        8.6071400280       -1.3370923139
 O        -7.0452770007        7.4437947576       -1.5419467251
 C        -6.1112586966        9.0995729123       -0.0334261152
 C        -5.2728024541        7.9100600534        0.6294162564
 O        -5.8336444794        6.8738975843        0.9005537293
 C        -3.7389986103        8.0375963473        0.7943445830
 C        -5.1498157528       10.3309183816       -0.3645929709
 C        -7.3486686647        9.4936759866        0.9681179864
 C        -8.6460146174        6.3284588670       -4.7835437166
 C       -10.9529238973        7.4005632130       -4.8629063095
 C       -13.0745149632        7.4666212042        1.9718003902
 C       -10.8153017458        7.8541716441        2.7869931212
 C        -8.0152406335        1.9441244934        3.4024372190
 C        -6.4840157670        3.5269043926        2.3268467915
 C       -10.7071403668       -0.3963728583       -2.8366131007
 C       -12.4349317513        1.4931252688       -2.7260042134
 C       -11.3531645226       -6.2738911316       -0.3140893043
 C       -13.2611932363       -5.4709820711        1.2126102129
 H       -10.1642084681       -6.2795175360        2.2333475334
 H       -11.2800701859       -5.1500991219        3.2990551074
 H        -9.5810736412       -4.6691023649        2.9465140780
 H       -12.7590678650       -2.3102719344        0.6531560699
 H       -14.0887546224       -3.1179771410       -0.1127783054
 H       -14.0948686790       -1.2050471331       -1.5733059085
 H       -12.7346691095       -2.0881336887       -2.3345119989
 H        -9.6825549220       -0.4407615363       -0.1032242166
 H       -10.4381569906        0.6527022233        0.9914155941
 H        -7.7147697973        0.8922122411       -0.2943003451
 H        -7.9733696882        0.6444957370        1.3112750934
 H        -9.9998546879        3.5412469471        4.6613926489
 H       -10.6415356252        3.0231326068        3.0917055795
 H       -10.8892506941        5.7552887561        4.4121786943
 H       -12.0810897194        4.5423761050        4.2607530364
 H       -12.6041388159        5.7843385392       -0.3639086017
 H       -11.2071509324        4.7693637625       -0.4487584571
 H       -11.7150295372        7.4212258877       -2.0048361715
 H       -12.1578667691        5.8102063721       -2.7260910911
 H        -7.6425217632        9.6320457735       -4.4826262650
 H        -7.1133897457        8.1011203943       -3.8541674765
 H        -8.0618999181       10.1219169449       -2.0770034839
 H        -6.3650889026       10.2312967901       -2.6052366450
 H        -3.2604021252        7.8793385416       -0.1220894962
 H        -3.2214208993        7.2921474006        1.5087613958
 H        -3.4417151740        8.9987808487        1.2441374004
 H        -4.5576300615       10.5196799196        0.4908229870
 H        -5.8011764310       11.1717113010       -0.5307541628
 H        -4.6746995046       10.1535880198       -1.2856738083
 H        -6.8116879941        9.5413123860        1.8580200908
 H        -8.0815968727        8.7162074140        0.8705491180
 H        -7.8022863091       10.4101778120        0.6710118435
 H        -8.0239723663        5.7321677375       -4.1428030641
 H        -8.0471134113        7.0203351020       -5.3518449086
 H        -9.2289449103        5.8153602337       -5.5409266427
 H       -10.7930824327        7.9506844754       -5.7665034324
 H       -11.5893456815        8.0214369057       -4.2429036259
 H       -11.3818995737        6.4490710242       -5.1128258534
 H       -13.7442388435        6.6141949728        1.9248953637
 H       -13.3596940033        8.2384304031        1.2623548350
 H       -13.1968429303        7.7433815098        3.0118400588
 H        -9.7612199260        7.5096976461        2.8650536968
 H       -11.1486377395        7.7756578718        3.8525126592
 H       -10.7455008458        8.8760219271        2.3913587203
 H        -8.0084385656        2.4048437983        4.3878212973
 H        -7.1971650537        1.2832612543        3.1988249616
 H        -9.0333467587        1.4713942169        3.3697205816
 H        -6.2736226318        3.9699512901        3.3596863689
 H        -6.1904772404        4.2368227002        1.5705059560
 H        -5.7315677933        2.7022549125        2.2274986221
 H       -10.4173227832       -1.2122229806       -2.2588602324
 H        -9.7940388963        0.2388890398       -3.0194601913
 H       -11.1621125329       -0.6538371207       -3.7803459635
 H       -11.7504205942        2.1913027420       -3.1694350746
 H       -13.1436850071        2.0693652378       -2.0546513395
 H       -13.0426737508        1.0485438463       -3.4770698530
 H       -12.0719978300       -6.8350291010       -0.9122173688
 H       -10.9346568135       -6.9651491928        0.3466516104
 H       -10.5508850187       -6.0176223786       -0.9883038449
 H       -13.2184380012       -6.5540345400        1.4061017959
 H       -14.0850943027       -5.3821314483        0.5009545319
 H       -13.5703579409       -4.8629549783        2.0617630917
 Na       -7.9254000589        5.9016808580        0.1253455558
