117

 C       -10.3482970440       -5.8192758147        2.0400469046
 C       -10.8959834073       -4.7934020065        1.0717192680
 O       -10.4080869560       -3.6898785408        0.9518002409
 C       -12.2384052833       -5.1687894426        0.4290189238
 C       -12.4037766357       -4.0942269110       -0.7214993467
 O       -11.9900327161       -4.2437884018       -1.8226706951
 C       -13.3320233649       -2.9375387914       -0.3688919045
 C       -13.1234758607       -1.7659332123       -1.3329367658
 C       -12.5231960193       -0.5235406647       -0.7534511791
 O       -12.9430776858       -0.1630555264        0.3360109537
 C       -11.5327452578        0.3257051464       -1.5770293951
 C       -10.6187992200        1.2673847314       -0.7162584085
 O       -10.4567642521        2.4279960978       -1.1087312532
 C        -9.9444478448        0.8144021002        0.5278213293
 C        -8.4308029092        1.3042777977        0.7298190585
 C        -8.2302798550        2.8240853684        1.0865627380
 O        -8.1927343442        3.6893420550        0.2200835088
 C        -7.9504797221        3.2219488436        2.5710245992
 C        -9.0487180707        4.3233270590        2.8600086705
 O        -9.1409843649        5.2358872517        2.0986893266
 C       -10.0804410431        4.1883835053        3.9764039483
 C       -11.0193894209        5.4485346459        3.9294146259
 C       -11.6118860044        5.7112160978        2.5101431992
 O       -12.3028569752        4.8596880741        2.0436083340
 C       -11.5123876017        7.0317033668        1.6711992678
 C       -10.5731386619        6.7839640920        0.4818769702
 O        -9.6363322548        7.5212502531        0.3309332251
 C       -11.0061456210        5.7480620065       -0.6052950232
 C       -11.0744614968        6.3513139533       -1.9810399339
 C        -9.7534459020        6.3042416998       -2.7805043988
 O        -8.8265906694        5.6250108958       -2.4044508376
 C        -9.6410549730        7.1999069850       -4.1018624046
 C        -9.1560590767        8.6270518075       -3.7286341608
 O        -9.9299213963        9.3835089132       -3.3182928649
 C        -7.6665461204        9.0057363423       -3.8319703290
 C        -7.0763269968        9.6941244558       -2.6026956412
 C        -6.6676113400        8.6199635269       -1.5534212212
 O        -6.9261924565        7.4558394005       -1.7605361566
 C        -6.0661878612        9.0985615276       -0.1585006173
 C        -5.4136517612        7.8531539746        0.5303761950
 O        -6.0470574009        6.8462502727        0.7831453237
 C        -3.9873769072        7.8208290247        0.9204259977
 C        -5.0434964124       10.2640591481       -0.3281678580
 C        -7.2644409336        9.5661253119        0.6681176042
 C        -8.5885758713        6.3806808499       -5.0151508455
 C       -11.0750746645        7.2178829560       -4.7417381044
 C       -13.0676873664        7.3316957717        1.2648825888
 C       -10.9740360355        8.2116681771        2.4055645252
 C        -8.0844928096        2.0310737206        3.5884270085
 C        -6.5309248443        3.9261806379        2.6464644652
 C       -10.4476981930       -0.4729516622       -2.4365756255
 C       -12.3829757276        1.1153258127       -2.6122387778
 C       -11.9755016879       -6.5714915619       -0.1812325469
 C       -13.4402005989       -5.1887780591        1.3984419793
 H        -9.5861433360       -6.4364654572        1.4390260287
 H       -11.1755226522       -6.5119677030        2.2695703415
 H        -9.7812974352       -5.2555321797        2.8154838029
 H       -13.3740019204       -2.6511849234        0.6828661641
 H       -14.3102966291       -3.2814187543       -0.5161059395
 H       -14.1415843749       -1.5228870861       -1.6756066641
 H       -12.6599423824       -2.0827806106       -2.3718924676
 H        -9.9582483710       -0.2226577534        0.7327468570
 H       -10.4908367363        1.3130033135        1.3448540640
 H        -7.7346527915        1.2344339965       -0.1283899858
 H        -8.0261611296        0.6174627209        1.5273673942
 H        -9.5314328112        4.2170148407        4.9357971007
 H       -10.7324010691        3.2952388211        3.8633715773
 H       -10.5128832523        6.3133372497        4.3115288666
 H       -11.9068049123        5.2726322629        4.5336453794
 H       -12.0019153990        5.3627524267       -0.3987988764
 H       -10.3632801291        4.8965303657       -0.6534209448
 H       -11.5195648969        7.3570087503       -1.9791727182
 H       -11.7321853200        5.7119615866       -2.6090748629
 H        -7.4897091031        9.6527405545       -4.6150440127
 H        -7.0106096367        8.1146967174       -3.8452662536
 H        -7.8674952829       10.2797107841       -2.1259070649
 H        -6.3358267863       10.4210964332       -2.9009748684
 H        -3.2442311307        8.3980967014        0.2509488438
 H        -3.6885767147        6.8289185765        1.0927527462
 H        -3.8967820961        8.3178965852        1.9091464589
 H        -4.3757121589       10.3268275482        0.5040569624
 H        -5.6544981558       11.1338787900       -0.4390938946
 H        -4.4270174591       10.0916279811       -1.1758144043
 H        -6.7785202448        9.9793249326        1.5439288741
 H        -7.8612462441        8.7301698146        0.8878287250
 H        -7.6964372798       10.3787558579        0.1124587398
 H        -7.7785645928        5.9265506150       -4.4765823183
 H        -8.2559207853        7.0866630050       -5.7470968415
 H        -9.0416440589        5.5247819863       -5.4689009790
 H       -11.0822952345        7.6294417051       -5.7803486105
 H       -11.8602141853        7.6865349230       -4.1876547164
 H       -11.2829717884        6.1782848221       -4.7754687113
 H       -13.4260822685        6.5594172654        0.6184281625
 H       -13.1456076631        8.3007162314        0.7966948659
 H       -13.5647423574        7.5020572239        2.2096749135
 H        -9.8462179139        8.1104317888        2.5541341605
 H       -11.4266921970        8.4876858893        3.3910787478
 H       -11.2015473452        9.0884827641        1.7398369789
 H        -7.8762998564        2.3459404139        4.6390785734
 H        -7.2616656285        1.3556916312        3.3205368995
 H        -9.0601408598        1.5158728999        3.5178531725
 H        -6.3201833821        4.2303677914        3.6432885987
 H        -6.5538833792        4.9513228271        2.1737568926
 H        -5.7681304031        3.3708609003        2.0980550019
 H        -9.9768467799       -1.3253179636       -1.9298071559
 H        -9.7600522289        0.2240430224       -2.7297910849
 H       -10.9952669270       -0.8814162153       -3.2722189168
 H       -11.8420541327        1.9440657622       -3.1402581162
 H       -13.2008724446        1.6008438098       -2.1512133445
 H       -12.6556169029        0.3620697907       -3.3927472121
 H       -12.6976182995       -6.9749288261       -0.8449595040
 H       -11.8688573137       -7.3007233464        0.6449468461
 H       -11.0342445486       -6.6096704472       -0.7053768943
 H       -13.4047272511       -6.1192014263        1.9481312723
 H       -14.3452439553       -5.0743062471        0.8344747605
 H       -13.3700686144       -4.3353276577        2.1106685086
 Na       -7.9049393216        5.8390311048       -0.0819864204
