117

 C       -10.0597890003       -6.1919495191        0.8802251927
 C       -11.1967304615       -5.0643546382        1.0416235982
 O       -10.9783714157       -4.0497584873        1.6648753772
 C       -12.6705394701       -5.3575366176        0.4755947513
 C       -12.8718906485       -4.1977067159       -0.5804744682
 O       -12.3401555764       -4.3216648717       -1.6980202874
 C       -13.5619970891       -2.8879141846       -0.0645002553
 C       -13.2369603477       -1.6848746125       -1.0199233706
 C       -12.3212783648       -0.7090892210       -0.3014236704
 O       -12.3789262118       -0.5350085482        0.8886942498
 C       -11.2081832492        0.1423215403       -1.2224488309
 C       -10.8974301216        1.4618910184       -0.3728926211
 O       -11.4984709302        2.4627768044       -0.6337279030
 C       -10.1499947459        1.3193712112        1.0069245384
 C        -8.5953477273        1.3745995992        0.8916222697
 C        -8.0583416020        2.7431299724        1.1652843436
 O        -7.7200983277        3.5246742447        0.2822425437
 C        -8.0156321485        3.2402215488        2.6359917013
 C        -8.8437173345        4.5190249169        2.6495732551
 O        -8.5263814486        5.4147262010        1.8521644877
 C        -9.9812615021        4.7769995077        3.6275684957
 C       -10.5513155910        6.1942999024        3.4654445506
 C       -11.6797227254        6.1913026978        2.4291281850
 O       -12.3321711658        5.1545834528        2.3339265156
 C       -11.9325414346        7.3444724733        1.4523075290
 C       -10.9678941992        7.0154313767        0.2669250063
 O        -9.8360569366        7.5203656508        0.3519005312
 C       -11.3084007296        5.8986138579       -0.7492078240
 C       -11.1391024068        6.3486924574       -2.2360921040
 C        -9.8245436285        6.2042197205       -2.9702605049
 O        -8.8510250778        5.6199746259       -2.4225916060
 C        -9.5929415614        6.9720883318       -4.3632491908
 C        -8.8783129274        8.3270299008       -3.8138966411
 O        -9.5575410356        9.0715750773       -3.1116712930
 C        -7.4106311339        8.5194186577       -4.0586772337
 C        -6.7675853165        9.3500887475       -2.8808945985
 C        -6.4667529222        8.4987549114       -1.6882600058
 O        -6.5639139165        7.3077886558       -1.8634371831
 C        -5.9551421941        9.1190808460       -0.3551030777
 C        -5.2140905661        8.0442992556        0.5552553717
 O        -5.7446856159        7.0127264422        0.9205072900
 C        -3.7738733038        8.4007524334        0.9818017676
 C        -4.9752649525       10.2260374362       -0.6500433523
 C        -7.1433841437        9.7045964483        0.5013657922
 C        -8.6284315854        6.0972596646       -5.2237466641
 C       -10.7882263452        7.3673551886       -5.1352452908
 C       -13.3796389570        7.4697479115        0.8182534491
 C       -11.6425019527        8.6846853714        2.0876727173
 C        -8.5536787090        2.1581397102        3.6205193684
 C        -6.5041515463        3.4726586350        2.9367107296
 C       -10.0825776115       -0.9263241442       -1.2780706452
 C       -11.6153616126        0.6004345262       -2.6799406712
 C       -12.8259343502       -6.6239460628       -0.3147888613
 C       -13.6069432224       -5.2609202707        1.6328613949
 H        -9.4172076089       -5.8601343013        0.1271366154
 H       -10.4778892316       -7.1145546195        0.6677368518
 H        -9.5691686907       -6.2183850012        1.8433500987
 H       -13.0528792081       -2.6366605252        0.9377050008
 H       -14.6521853066       -3.0365990884        0.0597063974
 H       -14.2213821618       -1.1944810100       -1.3023870928
 H       -12.8058118426       -1.9978451470       -1.9360282644
 H       -10.3688403726        0.4167123733        1.6214813718
 H       -10.4702407014        2.2095869199        1.5945842924
 H        -8.2227920158        1.1370973257       -0.1172558821
 H        -8.1364750623        0.7078733749        1.5696050269
 H        -9.5963307008        4.6977200792        4.6124683270
 H       -10.7621060177        4.0281918079        3.5007083763
 H        -9.7487246138        6.9362942942        3.1818257249
 H       -10.9574769063        6.4867692998        4.4850751132
 H       -12.4098152340        5.6858247756       -0.6492954320
 H       -10.8071498830        4.9269278242       -0.4373460727
 H       -11.5038767400        7.3749726565       -2.2834467230
 H       -11.7377885560        5.8506125236       -3.0309011379
 H        -7.3002979310        9.1123175513       -4.9844345184
 H        -6.8752937866        7.6292687356       -4.1990938973
 H        -7.5306660160       10.1004783604       -2.5850241451
 H        -5.9764756527       10.0276621378       -3.1737708815
 H        -3.1427685325        8.7058718141        0.1614116184
 H        -3.1861716416        7.6942887115        1.5951322258
 H        -3.9003683025        9.3201516942        1.4837671313
 H        -4.6732007142       10.7757250987        0.2831317218
 H        -5.3753129035       10.9999901498       -1.3327992648
 H        -4.0598093095        9.9081943989       -1.2571147481
 H        -6.6875484688        9.9129680967        1.4925641970
 H        -7.9435955399        8.9242795815        0.5378885241
 H        -7.4919616326       10.6067737455       -0.0085259844
 H        -8.0963916935        5.4088778044       -4.5274577597
 H        -7.7536951190        6.5230726150       -5.7236762298
 H        -9.1752917576        5.6149749075       -6.0244123265
 H       -10.4802385310        7.7433916813       -6.1001102019
 H       -11.3934755187        8.1531010278       -4.6429598326
 H       -11.4820433965        6.4879695326       -5.3876900862
 H       -13.9478963511        6.6518078550        0.3897134756
 H       -13.2101808627        8.2936759305        0.1609259719
 H       -13.9544616134        7.7381606056        1.6871285523
 H       -10.6223684055        8.8217435297        2.1908813266
 H       -12.1091573653        8.8316769090        3.0281194359
 H       -11.9812960298        9.4100234463        1.3490739337
 H        -8.5651203828        2.4315570885        4.6811225215
 H        -7.9891595551        1.2026567247        3.5080129012
 H        -9.5246020908        1.8967280713        3.3735655699
 H        -6.2181495069        3.5828296659        3.9346865638
 H        -6.1844940752        4.2852600578        2.3021661227
 H        -5.8918432464        2.6186304387        2.6850860773
 H        -9.8307384011       -1.2018248210       -0.2152344098
 H        -9.2045265013       -0.6102135585       -1.8282037238
 H       -10.4700704862       -1.7825290445       -1.8682073954
 H       -10.9852723013        1.3596175744       -3.0393651259
 H       -12.6685014432        0.8760990619       -2.7116729017
 H       -11.6333806574       -0.2635925220       -3.2960140579
 H       -13.8435801028       -6.7110278850       -0.6295693449
 H       -12.6538546174       -7.5042378250        0.3377955784
 H       -12.1885771722       -6.6351627921       -1.1931200865
 H       -13.6114293071       -6.0746212847        2.3558252363
 H       -14.6437783167       -5.1115544362        1.2572316176
 H       -13.2480565086       -4.3305820376        2.1222079584
 Na       -7.6350229483        5.9598103201       -0.2945405508
