117

 C       -10.2602069436       -5.9713040947        1.9453118453
 C       -10.9871986961       -4.7489087248        1.1704353764
 O       -10.4718923436       -3.6721715645        0.9719340212
 C       -12.2728204274       -5.1992552414        0.4176646192
 C       -12.5452377565       -4.1705479544       -0.6979412804
 O       -11.9762813506       -4.2947029223       -1.7602946125
 C       -13.4129736534       -2.9523167244       -0.3840955458
 C       -13.1875623266       -1.8548620103       -1.3700426783
 C       -12.5350738115       -0.6064265915       -0.7157811426
 O       -12.8560613018       -0.2487829772        0.3886874803
 C       -11.5361523215        0.3420086236       -1.5685353815
 C       -10.6721523901        1.4499607318       -0.6308326457
 O       -10.4648358223        2.5279834190       -1.0675395222
 C        -9.9666406191        0.9198371873        0.7629746346
 C        -8.4528432273        1.3703894164        0.7935564456
 C        -8.1610344853        2.8050517311        1.0603585405
 O        -8.0205041980        3.5721045474        0.1445614306
 C        -8.0268880805        3.2289682609        2.6023764837
 C        -9.0731976168        4.3484817397        2.7854360364
 O        -9.0036428347        5.2739827681        1.9868144107
 C       -10.0723924390        4.3414212129        3.9339857192
 C       -11.0223553248        5.6022868805        3.8951494393
 C       -11.6677875243        5.7322199976        2.5003115098
 O       -12.2804196295        4.8200355284        1.9864278861
 C       -11.5796936304        7.1936242928        1.6961882523
 C       -10.6763817281        6.8727390226        0.5087173427
 O        -9.5347067908        7.3945790271        0.5052548456
 C       -10.9241499208        5.7499936471       -0.5175161747
 C       -11.0378040683        6.2815617460       -1.9492286262
 C        -9.6566862869        6.3310321822       -2.7574593296
 O        -8.7266510447        5.6166635781       -2.3355990399
 C        -9.6240183327        7.0726597765       -4.1076184163
 C        -9.1259340444        8.6320567671       -3.7261622882
 O        -9.9615753578        9.4460094492       -3.3920141439
 C        -7.6415398782        8.9416881162       -3.9202331694
 C        -7.0890306537        9.6420113108       -2.6140542677
 C        -6.7109756404        8.5596170886       -1.5699519123
 O        -6.9551480535        7.4038367643       -1.8742987818
 C        -6.0937716317        9.0589010564       -0.2174222527
 C        -5.4256434361        7.8343392211        0.5273938990
 O        -6.0885786533        6.8402523517        0.7679706770
 C        -3.9690240434        7.8956020308        0.9483446308
 C        -5.0449725371       10.1656882301       -0.3727229510
 C        -7.3314718424        9.6131585554        0.6943336026
 C        -8.5920067812        6.3890534622       -5.0938987021
 C       -10.9556449804        7.3080139133       -4.7496934267
 C       -13.0461363620        7.2566187094        1.2843274364
 C       -11.0634422067        8.4971973395        2.3768764590
 C        -8.1536399036        2.0631054269        3.5827154993
 C        -6.6150522248        3.8572098344        2.6760902319
 C       -10.4579958761       -0.5746138407       -2.2368652977
 C       -12.3099677657        1.0936196539       -2.7043904769
 C       -12.1273655879       -6.6108049394       -0.2967276092
 C       -13.4158736893       -5.2311515195        1.5010615697
 H        -9.6493091414       -6.5637109248        1.2528181111
 H       -11.0349901381       -6.6399543305        2.3188302043
 H        -9.5613427665       -5.4326599121        2.6552500541
 H       -13.0550296268       -2.5645320272        0.5543125656
 H       -14.4430849566       -3.1556920219       -0.1619783629
 H       -14.1711898535       -1.6189933005       -1.9833601662
 H       -12.5640331969       -2.1794746353       -2.2000941094
 H        -9.8457360935       -0.1740213422        0.7494006799
 H       -10.4579329519        1.1776150132        1.6692512442
 H        -7.9552610725        1.2548116362       -0.2504531890
 H        -7.9154810772        0.7158430970        1.4994996863
 H        -9.4696382297        4.3348650135        4.8826310604
 H       -10.7370474254        3.4394421713        3.7873561563
 H       -10.4682337800        6.4846102878        4.1075435083
 H       -11.8335091910        5.5283595067        4.5464948508
 H       -11.7619378930        5.1249492053       -0.2943242900
 H       -10.0545142664        5.1461246697       -0.4896672080
 H       -11.5171816826        7.2482162756       -1.9952606531
 H       -11.6866854882        5.6067904924       -2.5603599598
 H        -7.4696195372        9.6812039798       -4.7756265448
 H        -7.0608171061        8.0630900430       -3.9678907883
 H        -7.9014074717       10.2965180323       -2.2152997560
 H        -6.2781677438       10.3690567967       -2.8387486006
 H        -3.4228116028        8.3369118743        0.1063302671
 H        -3.5801983104        6.9093152719        1.2421897592
 H        -3.7367796648        8.5799226494        1.7697172495
 H        -4.5730799484       10.3076649228        0.6153286414
 H        -5.5958645878       11.0610686856       -0.5809846655
 H        -4.1981916291        9.9351712550       -1.0401740515
 H        -6.9918898840        9.8396070846        1.6847655981
 H        -8.1010103299        8.8463990160        0.6729738617
 H        -7.5352173292       10.5174858126        0.1817764925
 H        -7.9120614921        5.7232789505       -4.5651667837
 H        -8.0923616231        7.1530536309       -5.6485282270
 H        -9.0419450005        5.6851167622       -5.7587346231
 H       -10.7727420862        7.6490072409       -5.7270797542
 H       -11.6532476083        7.9267485721       -4.1954390305
 H       -11.4649110650        6.3019036382       -4.8087534063
 H       -13.2564302000        6.3345050317        0.7699373100
 H       -13.1292515103        8.0468021388        0.5692044843
 H       -13.6359375158        7.5872292881        2.1090359645
 H       -10.0864186492        8.2197840950        2.6251226781
 H       -11.5457440460        8.8733768712        3.2239213546
 H       -11.0328039492        9.3523673090        1.6595273501
 H        -7.9782253600        2.3941964643        4.6365756241
 H        -7.3338122423        1.2879802817        3.3645759670
 H        -9.1184908000        1.6192718963        3.4482873528
 H        -6.3647433274        4.0994967321        3.6930778982
 H        -6.4868513488        4.8331622511        2.2016903592
 H        -5.9215887379        3.1658135585        2.1824818262
 H       -10.1591821790       -1.4062314647       -1.5858987023
 H        -9.6104077552        0.0000806542       -2.5877620599
 H       -10.9950056658       -1.0380417562       -3.0532115523
 H       -11.7861272893        1.9491483461       -3.0221619725
 H       -13.2515634383        1.4727276176       -2.3498705953
 H       -12.3810715699        0.4526338587       -3.5536149761
 H       -13.0551720961       -6.7610407618       -0.7980485696
 H       -12.1022603943       -7.3939459905        0.4479833375
 H       -11.3371987514       -6.7869811439       -1.0011950025
 H       -13.3033894391       -6.1182466635        2.1133955340
 H       -14.4440432809       -5.1263257497        1.0570358997
 H       -13.2081212823       -4.3772614420        2.1599484306
 Na       -7.8802711358        5.8955397623       -0.1928655545
