117

 C       -10.1036028645       -6.0486547717        0.5818822232
 C       -11.2723120540       -5.1842795299        0.9939274066
 O       -11.0680268114       -4.3368503827        1.8379885254
 C       -12.7719258586       -5.3770938927        0.4437455128
 C       -12.9797215894       -4.1836862478       -0.6057786786
 O       -12.4176851963       -4.2895984931       -1.6428415800
 C       -13.6723067868       -2.8583911600       -0.1067531771
 C       -13.3679378998       -1.6565258506       -0.9864891701
 C       -12.3135690449       -0.7723858782       -0.2371264320
 O       -12.4531100433       -0.6194716528        0.9519427290
 C       -11.2031931196        0.0290124119       -1.1002160432
 C       -10.9898317693        1.3830915546       -0.2682588894
 O       -11.4186248104        2.4360548566       -0.7169649944
 C       -10.1922208927        1.3498379695        1.0690986039
 C        -8.6587941133        1.4484517995        0.7624583235
 C        -8.0663096421        2.8494270273        1.0513830168
 O        -7.6160731011        3.5146163973        0.1408608416
 C        -7.9896647458        3.3824130304        2.6474287408
 C        -8.7572767027        4.7064823348        2.6920234196
 O        -8.3499424210        5.6538098264        2.0850452549
 C        -9.9369191805        4.9627108318        3.7242884039
 C       -10.6448274949        6.3169939428        3.4216392735
 C       -11.8161085003        6.1811353905        2.4172045653
 O       -12.5700715461        5.2527477218        2.3225024367
 C       -11.8929934252        7.3763282241        1.3891176595
 C       -10.9381629164        6.8657684491        0.1661576774
 O        -9.7833953801        7.1850109014        0.2288592324
 C       -11.3836129660        5.8777725674       -0.8790658639
 C       -11.2573222593        6.2512985995       -2.3567020886
 C        -9.7988022524        6.1686399487       -2.9752517311
 O        -9.0122697074        5.5467732174       -2.3472580185
 C        -9.4529057103        6.9079083545       -4.2811287047
 C        -8.7516066857        8.2374414809       -3.7704178184
 O        -9.3922631914        9.0887800789       -3.2463765079
 C        -7.2475919422        8.5075149657       -4.1101168356
 C        -6.5519091166        9.2679527387       -3.0057767537
 C        -6.3100598166        8.4552624855       -1.7437509327
 O        -6.4664162551        7.2324842180       -1.8306668132
 C        -5.8771685127        9.1815850473       -0.4753920879
 C        -5.0948816165        8.1202999209        0.4223116694
 O        -5.7183842570        7.1326801135        0.7658281860
 C        -3.7735144835        8.3823015407        1.1179984497
 C        -5.0252173778       10.4330315506       -0.7989068970
 C        -7.1547833451        9.5710804393        0.4155663638
 C        -8.5862904245        6.0513650341       -5.1603216717
 C       -10.7237935235        7.3425793805       -5.0175483798
 C       -13.4151053757        7.4077284605        0.9850630421
 C       -11.4425191179        8.7232236667        1.9022859648
 C        -8.4411938766        2.3861863672        3.6834195129
 C        -6.5455898532        3.7366001104        2.8992295532
 C        -9.9558312537       -0.8226973607       -0.9690049345
 C       -11.6390364683        0.3920787171       -2.5623411031
 C       -12.9459860796       -6.8261280118       -0.2029605482
 C       -13.7185181367       -5.3326587274        1.6885514736
 H        -9.2293058242       -5.3405922816        0.4516109033
 H       -10.3885105523       -6.6173695835       -0.3306311304
 H        -9.9881786742       -6.7973406474        1.3902385671
 H       -13.3366276139       -2.5782839545        0.8493437714
 H       -14.7326738658       -3.0920440614       -0.0724383685
 H       -14.2151163194       -0.9989660959       -1.1232050220
 H       -12.9313111203       -1.9140635046       -2.0504049679
 H       -10.3491512759        0.4168654139        1.5748069040
 H       -10.4867828329        2.1139524576        1.7824238920
 H        -8.3890842183        1.2844718842       -0.2778579465
 H        -8.0966293750        0.6105969058        1.2985342249
 H        -9.3560904165        4.9871392441        4.6947509376
 H       -10.6129729950        4.0880013930        3.8121473960
 H        -9.8793967761        6.9257921656        2.9707607109
 H       -10.9969429815        6.8624831566        4.2760499566
 H       -12.3629777078        5.4766205588       -0.7176511667
 H       -10.7217803604        5.0398301218       -0.7918455343
 H       -11.6648851573        7.2639307291       -2.5376387212
 H       -11.8292677328        5.5838628151       -2.9892705833
 H        -7.1429862233        9.1549631074       -4.9624317595
 H        -6.5916083453        7.6205341851       -4.4471539410
 H        -7.1666593455       10.1189642347       -2.7900917682
 H        -5.6470665473        9.7632623996       -3.3730919111
 H        -2.9102529928        8.6342925547        0.4532838475
 H        -3.5066716947        7.4482199893        1.5263425036
 H        -3.8148607049        9.1753046347        1.9186971807
 H        -4.5183865099       10.8227552565        0.0521375314
 H        -5.5820658120       11.2441744863       -1.2340836616
 H        -4.3174768360       10.2889765955       -1.5558058823
 H        -6.7644756251        9.9429465114        1.3556001756
 H        -7.8425932402        8.7586256642        0.4997943679
 H        -7.6313538491       10.3455988317       -0.2021236273
 H        -7.5919762125        5.8977275503       -4.8448425197
 H        -8.4566216215        6.5276204527       -6.1268154770
 H        -9.1596222702        5.1628234124       -5.4070441443
 H       -10.6373002310        8.0784173282       -5.8632950459
 H       -11.3606271306        7.8822120206       -4.3290935003
 H       -11.2488969145        6.4977719150       -5.3098027043
 H       -13.7673665253        6.3889844126        1.0321485590
 H       -13.4551301355        7.7864845553       -0.0373376657
 H       -14.0440892572        7.8951313680        1.7278270826
 H       -10.4212252755        8.6674888336        2.4238478384
 H       -12.1678852207        9.0459678458        2.6964441544
 H       -11.3953861302        9.4655088738        1.0608276400
 H        -8.3051581839        2.7778956246        4.6904866967
 H        -7.9663903520        1.4523153530        3.5987955341
 H        -9.5552524966        2.2222132659        3.7247376794
 H        -6.4788367070        4.2199851416        3.8973149984
 H        -6.1884016204        4.3908315161        2.0935205927
 H        -5.8438930638        2.9206376988        3.0161741311
 H        -9.7416780185       -0.9617428378        0.0732336003
 H        -9.0675096780       -0.4703789153       -1.5071104155
 H       -10.2152317671       -1.7933906946       -1.3719495302
 H       -10.9692440971        1.2617904603       -2.8887210367
 H       -12.6769874404        0.7328131448       -2.5614775230
 H       -11.6770871477       -0.4878190028       -3.2693186231
 H       -14.0411268891       -7.0297197169       -0.3803814599
 H       -12.5389763741       -7.6429594795        0.4065686144
 H       -12.4792582179       -6.7873003490       -1.2033500961
 H       -13.3794808571       -6.1697757797        2.3000845066
 H       -14.6905949922       -5.6141164199        1.3541062819
 H       -13.7926664959       -4.4069613914        2.2549900595
 Na       -7.8046807415        6.0356617787       -0.1286172619
