117

 C       -10.4706954475       -5.4542483333       -0.0318034958
 C       -11.5618405792       -5.5408070408        1.0718800538
 O       -11.3251986342       -5.7570120269        2.2412077627
 C       -13.0989637602       -5.3950514567        0.5868733718
 C       -13.2438987672       -4.1684112629       -0.3884556174
 O       -12.8191249382       -4.1761074076       -1.5115118874
 C       -13.7382558242       -2.8088413447        0.2811756869
 C       -13.4479602622       -1.5902656863       -0.6148515135
 C       -12.2591769787       -0.8207641054        0.0365075568
 O       -12.3332001960       -0.7183986242        1.2207277065
 C       -11.1814616511       -0.0388656427       -0.7988261212
 C       -10.9036116259        1.3701788370       -0.2066250266
 O       -11.0937911382        2.3281482012       -0.9216415570
 C       -10.3422161720        1.4220196871        1.2148795443
 C        -8.8119732997        1.6961425734        1.3124748861
 C        -8.4448295465        3.1689634339        1.3092254085
 O        -8.5489145954        3.8386831263        0.2541215279
 C        -7.9203220650        3.8336399034        2.6068457617
 C        -8.6600170529        5.2180669624        2.9166055140
 O        -8.2725631319        6.2606835825        2.4059341507
 C        -9.9626855686        5.2614710770        3.7431809945
 C       -10.8793102276        6.5658752633        3.5771518906
 C       -11.9345829812        6.3813050134        2.3898112731
 O       -12.4652905720        5.2939564504        2.3361103291
 C       -12.0508031672        7.4118987522        1.1778164565
 C       -10.9934835129        6.7651953814        0.1018283659
 O        -9.8328077959        7.1361322918        0.2192869132
 C       -11.3318890052        5.6955848860       -0.8934221169
 C       -11.0091710876        6.1917661037       -2.3710117867
 C        -9.5868752894        6.1213206968       -2.8894968533
 O        -8.6433914027        5.5933288060       -2.3265168377
 C        -9.2769189999        6.7413959236       -4.3091764488
 C        -8.3694521950        8.0888562243       -3.8886744120
 O        -8.8733712803        8.8206179684       -3.0707629145
 C        -6.9408102003        8.1741291000       -4.4072929560
 C        -5.9943956635        8.9091392370       -3.3822029391
 C        -6.1286445140        8.2630446224       -2.0210678114
 O        -6.4337436057        7.0641334803       -1.9739368797
 C        -5.9759619723        9.1098247855       -0.7307793592
 C        -5.0894184137        8.1927479012        0.3194267119
 O        -5.5321905180        7.1274193631        0.6936441721
 C        -3.7066199152        8.7318654070        0.7924246721
 C        -5.1888876180       10.4069963214       -1.0049062543
 C        -7.2971950019        9.4105734625        0.0029698325
 C        -8.4833688970        5.6499911479       -5.1030651751
 C       -10.4522606181        7.2586664469       -5.1943803798
 C       -13.5348190201        7.4018481485        0.5163351333
 C       -11.5739973918        8.7563225602        1.5840696883
 C        -7.9320745481        2.8949989014        3.8902769227
 C        -6.3630629444        4.0569939060        2.3938597013
 C        -9.8875913871       -0.8257131598       -0.7247218374
 C       -11.4906289107       -0.0585467986       -2.3127953761
 C       -13.2455917533       -6.5985828071       -0.3343333453
 C       -14.1102973044       -5.4627242207        1.7307602075
 H        -9.5780035717       -5.8134486501        0.5039648684
 H       -10.3505599209       -4.4346547723       -0.3920774619
 H       -10.7004678910       -6.0687666379       -0.8784412120
 H       -13.4062442067       -2.6109083019        1.2991012138
 H       -14.8659865374       -2.9416787297        0.3333779932
 H       -14.2158346332       -0.8991579815       -0.5159223783
 H       -13.2209346868       -1.9067313387       -1.6909485560
 H       -10.5732383021        0.4721197886        1.7554237761
 H       -10.9216587665        2.2257317942        1.7016901417
 H        -8.3664857878        1.2743531660        0.4035662055
 H        -8.4143842594        1.1343555654        2.1752512767
 H        -9.6989512497        5.0496647422        4.7763433417
 H       -10.4950681741        4.3389112535        3.5204888837
 H       -10.2360944708        7.4608738735        3.4229011761
 H       -11.3724319730        6.7351789517        4.5422865501
 H       -12.4186181319        5.5321518531       -0.8670167576
 H       -10.7022560196        4.7782429924       -0.7459036084
 H       -11.2996884660        7.2287260685       -2.4550517881
 H       -11.4672400681        5.5746677546       -3.1533354164
 H        -6.9557355334        8.6687270491       -5.3359333223
 H        -6.4964191738        7.1896677825       -4.6917331056
 H        -6.3324042059        9.9457523639       -3.3416593307
 H        -4.9071020218        8.8378197356       -3.7116906293
 H        -2.9418335545        8.7451167867       -0.0058389048
 H        -3.2899128642        8.1471105232        1.5425952934
 H        -3.7971908496        9.7417557924        1.2870579006
 H        -4.8682830275       11.0944326710       -0.2387620380
 H        -5.6716623765       11.1722559494       -1.6288378183
 H        -4.2362916595       10.1708387086       -1.3976215423
 H        -7.0841286415        9.7997230410        0.9778074043
 H        -7.8314534918        8.5100351271        0.0834187899
 H        -7.8440154358       10.1915355520       -0.5096126197
 H        -7.4786978554        5.4798421344       -4.8415276028
 H        -8.6050180455        5.9301284270       -6.1351660620
 H        -8.8522637732        4.6454391562       -4.9740789385
 H       -10.0447802252        7.7096679338       -6.1371010496
 H       -10.9254016460        8.0752196075       -4.6564199671
 H       -11.2176642862        6.6363802129       -5.5305799647
 H       -13.9319316277        6.4229100839        0.3737693444
 H       -13.5839114148        7.9965553697       -0.3900234109
 H       -14.1536352657        8.0310759598        1.1392397242
 H       -10.5133997813        8.7917036419        1.6038174004
 H       -12.0213592937        9.1185739787        2.4391733032
 H       -11.8720907312        9.4252914438        0.7833636794
 H        -7.6821850324        3.5463316466        4.7413477224
 H        -7.1888383999        2.1084051494        3.9555884682
 H        -8.8764210845        2.2737197196        4.1702977191
 H        -6.0029427585        4.7841162258        3.1522869627
 H        -6.1794743843        4.6175261023        1.4654252080
 H        -5.8486627720        3.1104190818        2.2744781865
 H        -9.5735132243       -1.0091774570        0.2738221347
 H        -9.0483757484       -0.2812174367       -1.2367817980
 H       -10.0029509059       -1.8016499466       -1.1907666360
 H       -10.7747442293        0.4003164638       -2.9800093193
 H       -12.4065499322        0.4054227660       -2.4710921254
 H       -11.5036157486       -1.0894215509       -2.6439698334
 H       -14.2813401679       -6.6921354120       -0.7231717861
 H       -12.8871615084       -7.4960732392        0.1113090350
 H       -12.6344601282       -6.3255085204       -1.1877799367
 H       -13.9195202596       -6.2311794859        2.4951413404
 H       -15.0490683939       -5.6477385110        1.2233503402
 H       -14.2359662660       -4.5344521424        2.2628250342
 Na       -7.7770843228        5.9562618337       -0.0723708833
