117

 C       -10.8598886855       -5.0373783010        0.6150940461
 C       -12.0645521229       -5.9227474907        1.0472768437
 O       -12.0335448795       -6.8691550476        1.7918069005
 C       -13.4989999541       -5.3981585136        0.4744010886
 C       -13.4747973535       -3.9283235617       -0.0841846469
 O       -13.0443406788       -3.7631878206       -1.2373586879
 C       -13.9387662514       -2.5986388545        0.6841076640
 C       -13.3794728995       -1.3865834477        0.0008892864
 C       -11.9951368500       -0.9000412316        0.4550876004
 O       -11.5235063638       -1.2899673333        1.5053250198
 C       -11.0442870463       -0.0379732299       -0.4242147621
 C       -11.0137747034        1.3255171888        0.2136520399
 O       -11.5525543840        2.2466834189       -0.3948585331
 C       -10.3855162818        1.7009547542        1.5275089084
 C        -8.8349047771        1.9617791329        1.5474265085
 C        -8.3467976273        3.4024944447        1.4981480278
 O        -8.2102704108        3.9210680726        0.4262308316
 C        -7.9644946835        4.2148823344        2.8525866912
 C        -8.7784064612        5.5481725026        3.0239399986
 O        -8.4693553005        6.4930529202        2.3141503771
 C        -9.9304298095        5.6900359389        4.0592368299
 C       -10.9099798261        6.7458260922        3.4863151134
 C       -11.5219190233        6.2038423672        2.1988922774
 O       -11.4799560697        5.0008839095        2.1093445844
 C       -12.0035244911        7.1932098080        1.0272783834
 C       -10.9594492499        6.9108743785       -0.0719582665
 O        -9.9079174834        7.5055834342       -0.0569592087
 C       -11.0828200342        5.8558636820       -1.0882428952
 C       -10.6216048718        6.5088587279       -2.4417281211
 C        -9.2849260681        6.0149121387       -3.0340972290
 O        -8.4318758927        5.4311907225       -2.4327780684
 C        -8.9852428004        6.3542438786       -4.5738324554
 C        -8.1199866772        7.6708028583       -4.4581490065
 O        -8.7486226969        8.6176535113       -4.1094182633
 C        -6.6166065943        7.5625386330       -4.6181033678
 C        -5.9641414125        8.6212001645       -3.6664541204
 C        -6.0960737574        8.1917431267       -2.2800161402
 O        -6.6948487545        7.1457323212       -2.0213643218
 C        -5.7763118649        9.1549974316       -1.0584822476
 C        -5.2626440259        8.2380429690        0.1035113651
 O        -6.0475232813        7.4447058239        0.6485948908
 C        -3.8888780244        8.3127351829        0.7843221621
 C        -4.6988801455       10.2248786104       -1.3921612636
 C        -7.0829669738        9.7756112515       -0.6271234221
 C        -8.1399786960        5.2330309498       -5.2128168544
 C       -10.2059068133        6.6881932514       -5.3993119809
 C       -13.4092194572        6.7564905044        0.5132340486
 C       -12.0557315516        8.6696813668        1.3421272046
 C        -8.2452704181        3.2699231360        4.1151511513
 C        -6.4418307341        4.6566244838        2.8167523573
 C        -9.6084624611       -0.6935249137       -0.2928554102
 C       -11.5794730005        0.1440728094       -1.8832112575
 C       -13.9086153657       -6.2414058398       -0.7148290959
 C       -14.5575836636       -5.6278923501        1.6539863663
 H        -9.8642270706       -5.3705888742        0.9813587976
 H       -11.1512921210       -4.0142094466        1.0307896030
 H       -10.8097066715       -5.0760661465       -0.5008291213
 H       -13.6852561779       -2.6507109914        1.7347187514
 H       -15.0128081049       -2.6284687673        0.6328150177
 H       -14.1205233917       -0.5249609251        0.1475191627
 H       -13.3322670421       -1.4815466352       -1.0323318455
 H       -10.5674739067        0.9499525709        2.2602078946
 H       -10.9132558581        2.6225965660        1.7966684389
 H        -8.4340901668        1.3711945281        0.7360456324
 H        -8.4877407053        1.4002437441        2.4484129347
 H        -9.5439427755        6.0088564198        5.0554094363
 H       -10.4209298937        4.7085029522        4.0507623064
 H       -10.3870843836        7.6587048908        3.3591036613
 H       -11.7508751672        6.8143032870        4.1748787299
 H       -12.1309849149        5.5033937832       -1.1294504688
 H       -10.4520142280        5.0022413376       -0.9299857913
 H       -10.5185585348        7.6174071823       -2.3682905278
 H       -11.2944405614        6.3673115503       -3.2512351092
 H        -6.4026625794        7.8654566728       -5.6473195784
 H        -6.2812925056        6.6021854160       -4.3475736799
 H        -6.3755583828        9.6582219972       -3.8503351481
 H        -4.8612385874        8.6254846833       -3.8481815389
 H        -3.1914122134        7.7392990860        0.1477672302
 H        -3.9826894415        7.7449389785        1.7680115983
 H        -3.4107534253        9.2537867263        0.8370564482
 H        -4.5159457758       10.8834469946       -0.5862863852
 H        -4.8673623327       10.8016479630       -2.2578467413
 H        -3.7551626761        9.7633691902       -1.7317058801
 H        -6.9931752629       10.1671756161        0.4035190642
 H        -7.8023328097        8.9201808970       -0.5313313352
 H        -7.5291902035       10.4841440979       -1.3230683730
 H        -7.4469147689        4.8218300172       -4.4500894070
 H        -7.4100771716        5.5935808189       -5.9406765328
 H        -8.7859171141        4.4615225998       -5.6238942173
 H        -9.9551679721        6.9824821836       -6.3766449359
 H       -10.8066857939        7.5050003790       -5.0543438167
 H       -10.8450918402        5.7740032275       -5.4145219669
 H       -13.6484685870        5.7282893669        0.1775704187
 H       -13.8224925256        7.4259038402       -0.2471485656
 H       -14.0592559635        6.8290476033        1.3963845630
 H       -11.0415045550        9.1349445784        1.6333737389
 H       -12.7289925836        8.8956276252        2.2378515001
 H       -12.3724326413        9.1346128392        0.4347955968
 H        -8.3657065323        3.8107692425        5.0643910263
 H        -7.3798792727        2.5756489676        4.2137860897
 H        -9.1954077674        2.8357163833        4.0607954300
 H        -6.1760599328        5.3186064749        3.6206756148
 H        -6.2275216827        5.0204075324        1.8216147351
 H        -5.8508268274        3.7455479308        3.0255582274
 H        -9.1847200780       -0.5969777532        0.7210340354
 H        -8.9096821592       -0.1785596845       -0.8999298351
 H        -9.5607315832       -1.7626394006       -0.5215144389
 H       -10.8872305931        0.8182853304       -2.4016121049
 H       -12.6491803364        0.5876327649       -1.9576407866
 H       -11.6108706271       -0.8659199069       -2.3450647291
 H       -14.9218960569       -6.0198258378       -1.0395759608
 H       -13.8039351995       -7.2786452887       -0.3064435608
 H       -13.2091048413       -6.0647293491       -1.5427228800
 H       -14.5286018232       -6.6341430662        2.0422228710
 H       -15.5780513218       -5.4518517055        1.3197695788
 H       -14.4343103056       -4.9143091569        2.5030070597
 Na       -7.8692850519        6.1672787030        0.0518187431
