117

 C       -10.4271732435       -5.3679363367        0.1863822012
 C       -11.6357627703       -5.6776816048        1.0791736999
 O       -11.5065557890       -6.1549563515        2.1808375892
 C       -13.0750694178       -5.4402537408        0.5115878788
 C       -13.3392074097       -4.0512643895       -0.3007534228
 O       -13.0405950256       -4.0037458334       -1.4893287182
 C       -13.9310681155       -2.7189040808        0.3664012990
 C       -13.3412905345       -1.5742131360       -0.4565670207
 C       -12.1771370464       -0.7673569592        0.1492279698
 O       -12.0633087923       -0.7058011104        1.3615847176
 C       -11.0070515248       -0.0551628853       -0.7754734855
 C       -10.8067884872        1.3162665058       -0.1968132320
 O       -11.1041872598        2.3092182378       -0.8659719663
 C       -10.4539522736        1.5170943811        1.3148334531
 C        -8.9272626529        1.6523334891        1.4309771788
 C        -8.5808292485        3.1099830903        1.4225598506
 O        -8.7806644237        3.8336068334        0.5058554494
 C        -7.9184088949        3.8083511421        2.6729948925
 C        -8.6689450872        5.1990248605        2.8393170752
 O        -8.2713447883        6.2234012162        2.3431522073
 C        -9.9972891041        5.2887600638        3.6896023135
 C       -10.7488857490        6.5357754917        3.3058531857
 C       -11.8307744155        6.2432694992        2.2892967578
 O       -12.5086553884        5.2602775447        2.1573205863
 C       -11.9772389415        7.3547915968        1.1331286741
 C       -10.8740336428        6.9413071803        0.0666290627
 O        -9.8100112066        7.5064546982        0.0641828029
 C       -11.1523531564        5.8723658430       -0.9713450681
 C       -10.8947075753        6.3331504027       -2.3890346290
 C        -9.4610714798        5.9738761532       -2.9802910603
 O        -8.6932941048        5.4041075169       -2.2724900979
 C        -9.2208179345        6.5963876111       -4.4074771568
 C        -8.3639428500        7.9016641575       -3.9774087124
 O        -8.7746748056        8.7409196849       -3.2082085506
 C        -6.8158620719        8.0361760029       -4.4375368170
 C        -6.0193168453        8.7991480236       -3.3853629809
 C        -6.0397577533        8.1892891888       -1.9897057278
 O        -6.3550071676        7.0451306380       -1.7719085727
 C        -5.8562621044        9.1983829248       -0.7340580591
 C        -5.0494690346        8.2617172631        0.3061766219
 O        -5.4912672068        7.1618913049        0.6344036757
 C        -3.6338991615        8.6934871135        0.6702866516
 C        -5.1659731833       10.5649889809       -1.0301334202
 C        -7.3216181857        9.4499679362       -0.2595457194
 C        -8.5107894772        5.5875659007       -5.3235841293
 C       -10.4736424736        7.1344136984       -4.9745544497
 C       -13.4440110519        7.1380828063        0.7235141227
 C       -11.8215997023        8.8079388898        1.5173344460
 C        -8.0761062843        3.0660725355        3.9834580400
 C        -6.5276902852        4.1906626020        2.2651962693
 C        -9.8247608046       -0.9607984380       -0.5794774475
 C       -11.5019898755        0.1065087540       -2.1734759741
 C       -13.4179855725       -6.5313200946       -0.4604882872
 C       -14.0722823775       -5.4714035720        1.7372469128
 H        -9.5273012312       -5.6888263356        0.6126109130
 H       -10.4847475185       -4.2822465571        0.0551764009
 H       -10.5441034696       -5.8426723808       -0.7743811720
 H       -13.6083913077       -2.6521600251        1.4423397606
 H       -15.0070004341       -2.8241882402        0.3802974631
 H       -14.1155733703       -0.7035771044       -0.6551619214
 H       -12.9261158949       -1.9367892247       -1.3702519258
 H       -10.7606816101        0.6717622459        1.9282577045
 H       -10.8690152092        2.4474874698        1.7292578520
 H        -8.3815404301        1.1977687748        0.5901980422
 H        -8.7100742926        1.2063971749        2.3849881964
 H        -9.7236173549        5.2100752409        4.7382739489
 H       -10.5745101412        4.3839154195        3.4994262632
 H       -10.0347906918        7.2955030581        2.9518692060
 H       -11.2758060655        7.0273056301        4.1629143719
 H       -12.2146011503        5.5987505670       -0.9433901712
 H       -10.4585928650        5.0298645328       -0.8992088713
 H       -11.0204693750        7.4262921279       -2.4542698435
 H       -11.5121648685        5.7908938649       -3.1032738511
 H        -6.6076394965        8.6314367304       -5.4055330380
 H        -6.3551230654        7.0824258133       -4.5651535680
 H        -6.5609025497        9.7438656132       -3.2714317655
 H        -5.0498044015        8.9442629677       -3.7641797487
 H        -3.0691297896        9.0434469054       -0.1742423139
 H        -3.0895369455        7.7818343306        1.1153452120
 H        -3.5645480593        9.4067555480        1.4443205657
 H        -5.0468891455       11.1855976841       -0.1308727715
 H        -5.8300363735       11.2360669243       -1.5532497807
 H        -4.1317840643       10.7415391401       -1.4115428487
 H        -7.4303699772       10.3942733248        0.3228621918
 H        -7.6067085998        8.5719273522        0.3835442070
 H        -7.9844674084        9.6374559801       -1.1034345908
 H        -7.8556846316        5.0115420791       -4.6220541746
 H        -7.9704790811        6.0851030905       -6.1377370187
 H        -9.1149427160        4.8117821144       -5.8270663234
 H       -10.3737965415        7.3523108735       -6.0020746853
 H       -10.8229383217        8.0256948695       -4.4427603719
 H       -11.3656074305        6.4146758839       -5.0132724023
 H       -13.7643979751        6.1546051693        0.3131540091
 H       -13.6351212546        7.9105603379       -0.0148480045
 H       -14.0860697180        7.4306699287        1.5520432679
 H       -10.7906003809        9.0528889316        1.8662860037
 H       -12.5572458419        9.0513140546        2.3249427868
 H       -12.1051035614        9.4453694900        0.7446703787
 H        -7.5385978132        3.5011523690        4.8026412891
 H        -7.8916730952        1.9959673429        4.0067299555
 H        -9.0893752327        3.0086241607        4.1693328304
 H        -6.2684689190        5.0334572301        2.8690891365
 H        -6.4647743013        4.5895039294        1.2668967279
 H        -5.8136506425        3.3593998125        2.3729752506
 H        -9.6510930991       -1.1898707233        0.5019859176
 H        -8.8787517619       -0.6533782623       -1.0259585443
 H       -10.0111396789       -1.9269336821       -1.0930202477
 H       -10.7330543319        0.5412201295       -2.7628581479
 H       -12.4212298284        0.7548486255       -2.1817812381
 H       -11.7154687653       -0.8332773511       -2.6421049505
 H       -14.4275720358       -6.3753080168       -0.7388388945
 H       -13.3448847047       -7.4758115438        0.0862056727
 H       -12.7503231804       -6.5100054893       -1.3192230415
 H       -13.8302981337       -6.3559061299        2.3189135343
 H       -15.1616260583       -5.4586702603        1.5316023973
 H       -13.7623209196       -4.6890251450        2.4411171053
 Na       -7.7707859606        6.0691724722       -0.1361264981
