117

 C       -10.4651375947       -5.2633538686        0.2362532702
 C       -11.7386553611       -5.6488825705        1.0816288968
 O       -11.5925889743       -6.2834253982        2.0987696210
 C       -13.2150429124       -5.4003166129        0.5104122043
 C       -13.3048751938       -4.1044620841       -0.3081279163
 O       -13.0312754788       -4.0747836123       -1.4741291113
 C       -13.7326765594       -2.7533373991        0.3564123819
 C       -13.3981790005       -1.5113444146       -0.3751430435
 C       -12.1630775332       -0.8456046167        0.2706223346
 O       -11.9895686961       -0.8708987128        1.4641392338
 C       -11.1427731367       -0.1044919054       -0.6780196074
 C       -10.9359507283        1.4336367524       -0.1161539336
 O       -11.0661703195        2.4302244005       -0.8030747041
 C       -10.4834961438        1.5932555466        1.4076097366
 C        -8.9220859487        1.7239496650        1.5684750998
 C        -8.5730638950        3.2192381121        1.4679860208
 O        -8.8588800779        3.8468513365        0.4528385918
 C        -7.9263692505        3.9433940720        2.7523421195
 C        -8.6864238402        5.2247937286        2.8219761119
 O        -8.2815806593        6.1941357755        2.1716617066
 C        -9.9461471483        5.3246081034        3.6668568524
 C       -10.7669944735        6.5601701105        3.2531634298
 C       -11.8167857044        6.2495200932        2.1747854105
 O       -12.3763071093        5.1740086176        2.2087541074
 C       -12.0444154824        7.3113793803        1.0597472915
 C       -10.8129763974        7.0476699757        0.0100155267
 O        -9.7570639378        7.6483014553        0.1085083483
 C       -11.0754768650        5.8612366510       -0.9160071058
 C       -10.9225414195        6.3423559350       -2.3343114690
 C        -9.4723440552        5.9846772152       -2.9244743004
 O        -8.7322504174        5.2758469234       -2.3091853840
 C        -9.1387611794        6.5827581474       -4.3362818692
 C        -8.2590591832        7.7917815206       -3.9532361020
 O        -8.7748625148        8.7151142207       -3.3819398506
 C        -6.7923111329        7.8477099357       -4.3608113331
 C        -6.0407640170        8.8439996623       -3.4399615593
 C        -6.0857114857        8.2659006463       -2.0334704863
 O        -6.3450707129        7.0658097611       -1.8963127899
 C        -5.8669330049        9.1635740087       -0.7299572475
 C        -5.0513633375        8.3080801226        0.2403698890
 O        -5.6001207587        7.2842263297        0.7011032803
 C        -3.5853202545        8.6113483353        0.6570414447
 C        -5.1835015097       10.4380118878       -1.0788102923
 C        -7.2836492645        9.4153602979       -0.2656590996
 C        -8.4684295610        5.6301887464       -5.3359778286
 C       -10.4268223085        7.1260257025       -5.1264897167
 C       -13.4916993466        7.1018605217        0.5590744976
 C       -11.8579767767        8.7748406341        1.5772213771
 C        -8.0449887629        3.0591880398        4.0558002874
 C        -6.3959915813        4.1900566997        2.3531248763
 C        -9.9128061260       -1.0361215693       -0.5935218371
 C       -11.4153818760       -0.0036087719       -2.2192795271
 C       -13.5384528750       -6.5003677174       -0.5307327726
 C       -14.1012152307       -5.3977842174        1.7909095505
 H        -9.5386259775       -5.6519606841        0.7162420808
 H       -10.5011772402       -4.1246722053        0.1583651066
 H       -10.5015655973       -5.7288030034       -0.7385783236
 H       -13.5430010067       -2.6716672250        1.4125361448
 H       -14.7941286358       -2.8891591134        0.3023042721
 H       -14.1982197741       -0.7904449624       -0.1798950885
 H       -13.2309918004       -1.6473295287       -1.3895397013
 H       -10.8228278621        0.6934094107        1.9331419455
 H       -10.8632746226        2.4518101146        1.8845860903
 H        -8.3795756732        1.2389212838        0.6988752718
 H        -8.7096057074        1.3172173515        2.5268567100
 H        -9.5615512921        5.3330713621        4.7196460325
 H       -10.4578561002        4.3240813329        3.5627849388
 H       -10.0416895794        7.2823007331        2.9051242940
 H       -11.2603916610        7.0107884395        4.0643384498
 H       -12.0753026237        5.5199681874       -0.8311349377
 H       -10.3306012380        5.1046050710       -0.7609547311
 H       -10.9569268871        7.4105644445       -2.3061900521
 H       -11.6304746945        5.9258411864       -3.0990013054
 H        -6.6823120116        8.2038789117       -5.4504530323
 H        -6.3393328815        6.8478855236       -4.2616720896
 H        -6.5621862026        9.7957952456       -3.5070156682
 H        -5.0074748063        8.8809985358       -3.7633896044
 H        -2.9023327819        9.0718901520       -0.0532520749
 H        -3.1400165658        7.7574074150        1.1387550931
 H        -3.6371981633        9.3373932766        1.5316258751
 H        -4.8094397221       11.0340665829       -0.2593422015
 H        -5.8596508193       11.1359848182       -1.5662050200
 H        -4.3030899903       10.4280987721       -1.6745577851
 H        -7.3301196097       10.4586153391        0.1120881110
 H        -7.5337926046        8.7326517046        0.5653710618
 H        -8.0210658728        9.4797584989       -1.0988372547
 H        -8.0669609733        4.7447829084       -4.8058846094
 H        -7.7809802408        6.0686990052       -6.0756462469
 H        -9.2574360682        5.1931488180       -5.9957145956
 H       -10.1138636492        7.5028019765       -6.0812445860
 H       -11.0094699121        7.8906351094       -4.6011664367
 H       -11.1510756532        6.3588883346       -5.4383632553
 H       -13.6682678055        6.0621499784        0.1738011561
 H       -13.7290493389        7.8150179084       -0.2607014361
 H       -14.1962805659        7.2671399876        1.3874810398
 H       -10.7893047998        8.9839874046        1.9558400112
 H       -12.5890956386        9.0626371942        2.3875819395
 H       -12.1148705377        9.4907876935        0.7554349038
 H        -7.6002099151        3.5684983449        4.8459579944
 H        -7.6047187529        2.1066602276        3.9804371242
 H        -9.0901613965        2.7337235997        4.2934121876
 H        -5.8792803881        4.8822731104        3.0490035125
 H        -6.2199028812        4.5854476828        1.3870357759
 H        -5.9994261757        3.1882598589        2.4752682551
 H        -9.4581105860       -1.2391166638        0.3283112958
 H        -9.1467234142       -0.6469306957       -1.3368877656
 H       -10.1447156676       -1.9683276425       -1.0795683367
 H       -10.5572647161        0.5766222883       -2.6511770148
 H       -12.3982547488        0.4571812341       -2.4778112210
 H       -11.3760003331       -1.0140439564       -2.7201174329
 H       -14.5729801267       -6.3908975277       -0.9192965941
 H       -13.4565874162       -7.4331776468       -0.0073825596
 H       -12.7696852382       -6.4175683065       -1.3266153912
 H       -13.9960609771       -6.3981015870        2.2270622149
 H       -15.2046256199       -5.1965210589        1.6745013829
 H       -13.6419336858       -4.8017405030        2.5389141026
 Na       -7.7639166010        6.2077849397       -0.0917293809
