117

 C       -11.1930863609       -5.0534467053        1.0620755549
 C       -12.5528771709       -5.7155919198        1.0825521799
 O       -12.6959458880       -6.7438479402        1.6894568325
 C       -13.7834824211       -5.0753982845        0.3167020094
 C       -13.4301123358       -3.6227249437        0.0436680598
 O       -12.9491862622       -3.3105066155       -1.0411965342
 C       -13.6604429065       -2.5407927057        1.2301362035
 C       -13.0500037602       -1.2465827434        0.6996911138
 C       -11.6269853369       -0.9917247292        0.9120937636
 O       -10.9860282930       -1.3185225211        1.9171266926
 C       -10.9410718392        0.1083275206       -0.0972019553
 C       -10.8828140726        1.4396683064        0.6072048914
 O       -11.5641058361        2.3548152991        0.2105199812
 C        -9.9804516741        1.6406263961        1.9065209805
 C        -8.4750588770        1.9708932002        1.5098301279
 C        -8.3283931753        3.4895603536        1.5273578441
 O        -8.4872239793        4.1023231894        0.4909342297
 C        -8.1457389488        4.1663526693        2.9934635161
 C        -8.8933632736        5.5523569518        3.0418183889
 O        -8.5288737706        6.4264785263        2.2992779195
 C        -9.9825291180        5.7798271865        4.0421772347
 C       -11.0560140367        6.7197964458        3.3739639963
 C       -11.4845386223        6.0921329560        2.0482750712
 O       -11.4337119238        4.8953736381        1.9941682677
 C       -12.0778924223        6.9202052583        0.8518464257
 C       -11.1440628217        6.8843413073       -0.3702068537
 O       -10.2316732808        7.7024991852       -0.3926971067
 C       -11.3359193018        6.0360938413       -1.5775406375
 C       -10.6127937098        6.6047071024       -2.7728039534
 C        -9.3254225444        5.8519812592       -3.1394390851
 O        -8.7736918536        5.1273289713       -2.3140891026
 C        -8.7255699955        5.9734513757       -4.5644517386
 C        -8.0593424482        7.4117597733       -4.6144656346
 O        -8.8085515983        8.3386594122       -4.4509286458
 C        -6.5305827962        7.4884159390       -4.7361900357
 C        -5.9281707161        8.4940523338       -3.8283347643
 C        -5.9611918339        8.1349562117       -2.3646910359
 O        -6.6668572263        7.1611874735       -2.0485882546
 C        -5.4884021586        9.1756952014       -1.2633424681
 C        -5.0851913442        8.3373202764        0.0642503360
 O        -5.9317326998        7.5287984036        0.4241399674
 C        -3.7845769279        8.5632158366        0.7368721625
 C        -4.4126672185       10.0903064627       -1.8931407470
 C        -6.7331018167        9.9434157820       -0.8095731244
 C        -7.7362952007        4.7862784639       -4.7747026972
 C        -9.7624187217        5.9419858001       -5.7223662164
 C       -13.4514349887        6.2372463652        0.5143942062
 C       -12.2613022155        8.4424652210        1.3413032865
 C        -8.5498493765        3.2369166812        4.1251120054
 C        -6.5386840334        4.4397103703        3.1325550020
 C        -9.5045876426       -0.4268516654       -0.5366120645
 C       -11.6366477200        0.1890024109       -1.5236854437
 C       -14.1358633795       -5.8642580613       -1.0383217638
 C       -15.0111927900       -5.2288667295        1.2485613151
 H       -10.4315073810       -5.7578282355        1.4607503276
 H       -11.1839872127       -4.2232572425        1.7607243531
 H       -11.0590998381       -4.6016966613       -0.0011248082
 H       -13.1126208351       -3.0270319074        2.0572537037
 H       -14.7551260485       -2.4275822788        1.4438502355
 H       -13.5730924229       -0.3669029104        1.1972896197
 H       -13.3160307317       -1.0994265854       -0.4248569410
 H       -10.0869897239        0.7670288859        2.5866978307
 H       -10.3083415645        2.5278314035        2.4572351558
 H        -8.3192056419        1.5919402486        0.5140795113
 H        -7.7858698146        1.4552802172        2.1518996138
 H        -9.6085873522        6.2657971518        4.9160289450
 H       -10.4736699525        4.8722994222        4.3579308939
 H       -10.7552559000        7.8118918355        3.3123867496
 H       -11.9108304178        6.6201327864        4.1146584572
 H       -12.3666816484        5.8056879748       -1.8728599733
 H       -10.8662735728        5.0378346147       -1.3031624883
 H       -10.3215086921        7.6208676476       -2.7713745730
 H       -11.3275850577        6.6526781430       -3.6116171970
 H        -6.1906684229        7.5865291378       -5.7213434331
 H        -6.0764611098        6.4831534482       -4.3734466354
 H        -6.3500000123        9.5020166886       -3.9065719844
 H        -4.8752983433        8.6957669835       -4.2001426487
 H        -2.9246165156        8.5619449241        0.0580465081
 H        -3.5865004919        7.9056307811        1.6279397206
 H        -3.8942357596        9.5790179207        1.0876612605
 H        -4.2034177699       10.9340089214       -1.2072353921
 H        -4.8972427387       10.5882782643       -2.7540992897
 H        -3.4475501283        9.6150988442       -2.0099232575
 H        -6.6100048563       10.5101592305        0.1282214671
 H        -7.6117537620        9.3133882481       -0.7595322346
 H        -6.9879174442       10.6656844581       -1.6242343483
 H        -7.2625732631        4.3362329970       -3.9166716317
 H        -7.0195782639        5.0821343381       -5.5631848583
 H        -8.2714368379        3.9206508024       -5.1948825032
 H        -9.3305999480        5.9869224260       -6.7520583733
 H       -10.5054052629        6.6764345336       -5.5040355500
 H       -10.2595211459        5.0416936241       -5.6668638274
 H       -13.2628374542        5.2266489411        0.2009657241
 H       -14.0373450251        6.6960765070       -0.3028405388
 H       -14.2305877970        6.2435037115        1.2777414902
 H       -11.2848665218        8.7758583534        1.6751556500
 H       -12.9829481832        8.3911386358        2.1709055304
 H       -12.6602845862        9.1894839674        0.6868161389
 H        -8.6143309045        3.8046583693        5.1053255399
 H        -7.6110911352        2.6199491680        4.1471640620
 H        -9.3449888280        2.5706519496        3.9156378975
 H        -6.4397245971        4.9369224718        4.0808184839
 H        -6.2634149959        5.1331356400        2.2948312745
 H        -6.0303074966        3.5166578501        2.9490092489
 H        -8.7990157924       -0.4044094376        0.3008917524
 H        -9.0541636708        0.1536057723       -1.3096597694
 H        -9.5263875843       -1.4695783145       -0.8048096050
 H       -11.0603871551        0.9405855577       -2.1536552239
 H       -12.6444193629        0.5993106774       -1.5005155511
 H       -11.4287127176       -0.7256157088       -2.0874060376
 H       -15.0719563183       -5.3233530884       -1.2950043600
 H       -14.1662459540       -6.9596027571       -0.8927735600
 H       -13.3937825779       -5.6173067994       -1.7904165100
 H       -15.1338328329       -6.2803905578        1.5652499117
 H       -15.9110516778       -4.9166662837        0.7577692021
 H       -15.0299442148       -4.7158579776        2.2039208101
 Na       -8.0059240602        6.2925659181       -0.0988346009
