117

 C       -11.3363381792       -5.1318716177        0.9725368456
 C       -12.7534352696       -5.7211324139        1.1821221478
 O       -12.9005476954       -6.8112701846        1.6977609509
 C       -13.8949781873       -4.9716613476        0.3463797454
 C       -13.5041222844       -3.4371219637        0.1415147117
 O       -12.8717477198       -3.1258095772       -0.8258156886
 C       -13.5781418095       -2.5054607095        1.4069594297
 C       -13.2261605917       -1.0328270592        0.9736921023
 C       -11.6237180510       -0.9278794355        0.8480300924
 O       -10.9873895483       -1.5602125190        1.6397649429
 C       -10.8489281621        0.0699482237       -0.1558664936
 C       -10.7782890560        1.4654166942        0.5811851001
 O       -11.4553859006        2.4027437099        0.2128430087
 C        -9.9452055209        1.3940714903        1.8336883705
 C        -8.5301315855        1.9480934718        1.6069527057
 C        -8.3765533369        3.5116142594        1.6533975765
 O        -8.2160005894        4.1357587171        0.6456390892
 C        -8.0174766864        4.2905558958        3.0339237994
 C        -8.7748472866        5.6093966466        3.0451184560
 O        -8.3766905444        6.5446610405        2.3478241936
 C        -9.9977143553        5.8187793895        3.8606954270
 C       -10.9403693145        6.7413699833        3.0779348773
 C       -11.5113743823        6.0476472403        1.8674522945
 O       -11.4318182474        4.8230962391        1.8311853324
 C       -12.2922173613        6.9840563761        0.7677416064
 C       -11.1743817273        7.0027611508       -0.3585144197
 O       -10.1123032470        7.5822120341       -0.1574032233
 C       -11.4454979639        6.1267844821       -1.6256839137
 C       -10.6434175675        6.5531544794       -2.8722422200
 C        -9.3087414919        5.7500842785       -3.0666868653
 O        -8.6663367193        5.3290686369       -2.1217844169
 C        -8.6760092690        5.7217534085       -4.5150446147
 C        -7.9558314741        7.1293845744       -4.5839848799
 O        -8.6608539431        8.1131628169       -4.3576277453
 C        -6.4666944249        7.4095570187       -4.8972049552
 C        -5.9073451029        8.5457363715       -3.9410253296
 C        -6.1811947003        8.1588164811       -2.3843366459
 O        -6.7980458356        7.1819243495       -2.1157412572
 C        -5.6597691221        9.1042718540       -1.2270758408
 C        -5.1624113700        8.2240209319       -0.0202878309
 O        -5.8050946272        7.3428188933        0.4783192599
 C        -3.8131407252        8.6763587114        0.6057565635
 C        -4.4085790232        9.9586081938       -1.7350359597
 C        -6.7982350230       10.0962893595       -0.9383473023
 C        -7.6977117250        4.5612611180       -4.7573624642
 C        -9.6742326367        5.6866132709       -5.6439978620
 C       -13.5856023458        6.2293868652        0.4607470667
 C       -12.6263985474        8.4240047016        1.0892380741
 C        -8.3221008067        3.4109527937        4.3093563735
 C        -6.4942473104        4.6077489968        2.8780431267
 C        -9.4933505013       -0.5912795428       -0.3453499342
 C       -11.7375288078        0.2542982856       -1.4726633159
 C       -13.9601063119       -5.6389070771       -1.0396092721
 C       -15.1754771865       -5.1908250384        1.1440103169
 H       -10.7129501812       -5.9253050643        1.2826064977
 H       -11.1139550671       -4.2678215270        1.5866701353
 H       -11.2452545025       -4.8432473858       -0.0027703941
 H       -12.7708376554       -2.8468380234        2.0767101425
 H       -14.5505302683       -2.6274748506        1.8860211907
 H       -13.6456244268       -0.4247938362        1.6981366302
 H       -13.6706341465       -0.7405670061        0.0282287021
 H        -9.8297679925        0.3335703366        2.0810713833
 H       -10.4368733070        1.8626610665        2.6956059647
 H        -8.2914591203        1.5608839897        0.5943451460
 H        -7.8559414878        1.5039952241        2.3600024576
 H        -9.7589811742        6.2740326903        4.8557018941
 H       -10.4794532006        4.8660830988        4.1224706547
 H       -10.4413840809        7.6633765079        2.8192888342
 H       -11.8024898528        7.0024819275        3.6907337501
 H       -12.5247193177        6.3041987647       -1.7928976619
 H       -11.3148921462        5.0633504367       -1.5049565846
 H       -10.3867773725        7.6510194353       -2.9060376110
 H       -11.2365783560        6.4834915607       -3.7768474776
 H        -6.3471297571        7.6650737474       -6.0173527341
 H        -5.9532707881        6.4904715566       -4.8420387062
 H        -6.4385631317        9.4517139316       -4.2416633916
 H        -4.9247151552        8.8586533204       -4.1504583787
 H        -2.9994542809        8.3699320032       -0.0491812049
 H        -3.6595397390        8.1348841657        1.4767168509
 H        -3.7153767490        9.7511210790        0.9274401131
 H        -3.9342700918       10.5559597203       -0.9196721357
 H        -4.7903477124       10.6229729600       -2.5526338748
 H        -3.5702901334        9.2760592309       -2.0238084966
 H        -6.4407655219       10.9172859824       -0.3530539110
 H        -7.5671883878        9.5864516349       -0.3867047718
 H        -7.2332362513       10.5313049078       -1.7997786916
 H        -7.0981603304        4.4226103733       -3.8738453625
 H        -7.1630528175        4.5680696422       -5.6640186712
 H        -8.2857575620        3.6617452272       -4.8013490590
 H        -9.1421372393        5.4041462280       -6.5097890200
 H       -10.1958512912        6.6555364521       -5.7024918554
 H       -10.4353099444        4.8593770711       -5.5629444633
 H       -13.4327217841        5.1443738102        0.4794460739
 H       -14.1928477012        6.4437130973       -0.4032971413
 H       -14.2869921460        6.3963587213        1.2836802037
 H       -11.7287284172        8.9485408854        1.0203542861
 H       -13.1340339042        8.5757313386        1.9751339598
 H       -13.2803458442        8.8712082727        0.3035844955
 H        -7.7160566839        3.8071671226        5.0427680897
 H        -8.1059969515        2.3828617267        4.1415474931
 H        -9.4322526115        3.3806431228        4.5164893207
 H        -6.1906327996        5.3715873230        3.6184491012
 H        -6.2359632490        4.9773172174        1.9051985683
 H        -6.1121774233        3.5819142626        2.9632304202
 H        -9.1163587563       -0.9771271199        0.5737186430
 H        -8.7482398858        0.1225680999       -0.8043427777
 H        -9.4903197083       -1.4116826361       -1.0745130901
 H       -11.2630166971        0.8140524924       -2.2212524554
 H       -12.5731843556        0.8370963100       -1.1677247537
 H       -11.9933844737       -0.7036581872       -1.9024677680
 H       -14.8010548700       -5.2207284105       -1.5651234266
 H       -14.0083191441       -6.7062740532       -0.8973418511
 H       -13.0006225448       -5.3951844928       -1.5356820386
 H       -15.4729147164       -6.2191481506        1.2476550424
 H       -16.0645872479       -4.7263373132        0.6795773737
 H       -15.1202545870       -4.8287616177        2.1534121603
 Na       -7.9328900376        6.5457671014        0.0068214457
