117

 C       -12.6551394448       -6.2850056736        0.7924439365
 C       -13.3784533112       -5.0539136342        1.3490186069
 O       -13.5614975729       -4.9134486377        2.5216839856
 C       -13.9686294934       -4.0667165805        0.3369880720
 C       -13.2784198910       -2.6805389821        0.3711637560
 O       -12.6331695849       -2.2629476567       -0.5845308529
 C       -13.5002394655       -1.8963607826        1.6681613577
 C       -13.0039387510       -0.4571281612        1.5349701147
 C       -11.4879241761       -0.5555149537        1.3259267961
 O       -10.8389851763       -1.2241616854        2.1064009389
 C       -10.6980741692        0.2715977867        0.2298837938
 C       -10.1717224960        1.5416242625        1.1090217899
 O       -10.7484936239        2.5988619873        0.9223141876
 C        -9.1400463841        1.4234034609        2.2741985831
 C        -7.7780036480        2.0717735884        1.9315305967
 C        -7.8385042313        3.6261326718        1.7317580645
 O        -7.7664937309        4.0618229004        0.5935144609
 C        -7.7411650425        4.5067820337        2.9971642832
 C        -8.6137331053        5.8383706488        2.7343303683
 O        -8.1669058694        6.7073531583        2.0106450142
 C       -10.0552691534        5.9296282525        3.2814991962
 C       -10.9521863338        6.9205069369        2.4598650985
 C       -12.0201338311        6.1867538392        1.7329512223
 O       -12.7532621558        5.3477946530        2.2477914798
 C       -12.4280248353        6.6065726190        0.2892081382
 C       -11.2398138222        6.5458977960       -0.6881185079
 O       -10.1482277160        6.8520849101       -0.2155498501
 C       -11.4687711928        6.1596148477       -2.1874523184
 C       -10.2039225623        6.3027528524       -3.0248619923
 C        -9.1127542641        5.2449377887       -3.0228494535
 O        -8.9208609728        4.5282081630       -2.0711018583
 C        -8.3414229940        5.0331164483       -4.3576168474
 C        -7.6799429936        6.3988058842       -4.8324745767
 O        -8.2964031112        7.2170883455       -5.4496761055
 C        -6.2203106600        6.6764317740       -4.5022060548
 C        -6.0027957080        8.0519547310       -3.8219637613
 C        -6.6295970232        8.0960012401       -2.4150181802
 O        -7.5599023924        7.3102291614       -2.2570021223
 C        -6.1002923943        8.9647080572       -1.2570636736
 C        -5.1918220076        7.8827123789       -0.3659754322
 O        -5.6379624425        6.8180612115       -0.0187266404
 C        -3.7668381421        8.3045214452       -0.0516173824
 C        -5.2383309951       10.1596902419       -1.7862812433
 C        -7.2308171934        9.4231363858       -0.2887959550
 C        -7.2615957602        3.9507221153       -4.1030997878
 C        -9.4826934842        4.5133159739       -5.3696481561
 C       -13.5014216800        5.6333699595       -0.2396090493
 C       -13.0145810883        8.0837540534        0.4221589094
 C        -8.1523637270        3.8442790397        4.3151501193
 C        -6.2821293396        4.9575602411        3.1709917588
 C        -9.5052880789       -0.4882078129       -0.4353631328
 C       -11.6228111476        0.7817677137       -0.8725552991
 C       -13.8616418339       -4.6267176426       -1.1383978716
 C       -15.4563316399       -3.8979048359        0.5842250606
 H       -12.2149985345       -6.8822564296        1.6371532041
 H       -11.7955873536       -5.9360985924        0.1272815397
 H       -13.4069847520       -6.8960845541        0.2596996108
 H       -12.8365177078       -2.3830475763        2.4622231847
 H       -14.5094888910       -2.1094313872        2.0990618963
 H       -13.0086469809        0.0159875885        2.5310461593
 H       -13.6442817603        0.0617765348        0.9725918427
 H        -9.0515240979        0.3295896133        2.4133359728
 H        -9.5856973058        1.8676676268        3.1886928457
 H        -7.3695152132        1.8009510854        0.9898486270
 H        -7.0663960169        1.7715855439        2.6664347504
 H       -10.0832926988        6.2974757246        4.2776832521
 H       -10.5198737737        4.9621105829        3.2384886157
 H       -10.3256462348        7.4861521171        1.6877771216
 H       -11.4934275986        7.7059010280        3.0593105434
 H       -12.3122125196        6.7602725328       -2.5843106862
 H       -11.7884111333        5.0737718362       -2.2834368845
 H        -9.7090542029        7.1261027443       -2.5492778033
 H       -10.4120197341        6.5308037605       -4.0918769402
 H        -5.5523677474        6.6430244366       -5.3520041610
 H        -5.9604897069        5.9831080495       -3.6356999316
 H        -6.3615027459        8.8695152085       -4.4519245172
 H        -4.9021033618        8.0200529903       -3.6471847887
 H        -3.2654474913        8.5688917805       -1.0002425766
 H        -3.3088671521        7.4256648978        0.4377064759
 H        -3.6428470512        9.1906364966        0.5118383191
 H        -4.8447676682       10.7095194987       -0.9575169613
 H        -6.0213058936       10.6324146897       -2.2862775954
 H        -4.4071631443        9.7650561142       -2.3547768152
 H        -6.7694942771        9.7516161379        0.6679486527
 H        -7.9664647659        8.6284955885       -0.0311416519
 H        -7.8497643380       10.2595470629       -0.6792199464
 H        -6.5711704209        4.2727347600       -3.3105098737
 H        -6.8070405462        3.4749713351       -5.0183572691
 H        -7.8042649225        3.1560670429       -3.5492855087
 H        -8.9875166631        3.9577141498       -6.1750441595
 H       -10.0905139603        5.3341112814       -5.6673724369
 H       -10.1412582403        3.8126040859       -4.8517049165
 H       -13.0005254244        4.7152857015       -0.5899040849
 H       -14.0355557187        6.0280713859       -1.1240319052
 H       -14.3121797283        5.4485427114        0.4680657153
 H       -12.1871145937        8.8508901525        0.4650075150
 H       -13.7930995520        8.1594983643        1.2225917860
 H       -13.6215730948        8.2968841291       -0.4764255208
 H        -7.8137018195        4.5346789581        5.1380562942
 H        -7.7604954784        2.8497678835        4.5813493841
 H        -9.1956312536        3.6976272444        4.4613358261
 H        -6.1283843944        5.8486257888        3.7396797674
 H        -5.8602326023        4.9730445348        2.1812324332
 H        -5.7771762730        4.0677100513        3.5707133541
 H        -8.6410848193       -0.6212040450        0.3038856706
 H        -9.1195276352       -0.0191782622       -1.2947070545
 H        -9.8328300717       -1.5000188850       -0.7068671774
 H       -11.0254408597        1.4160541027       -1.5607192382
 H       -12.4783579687        1.4230455208       -0.5006475619
 H       -11.8616089409       -0.0693431436       -1.5250028236
 H       -14.4056180579       -3.8471301488       -1.6377997843
 H       -14.3296754760       -5.6108269140       -1.2385268050
 H       -12.8707617351       -4.7304924523       -1.4670039945
 H       -16.1033975425       -4.6573771560        0.1255927466
 H       -15.7792394846       -2.9216977835        0.2685164343
 H       -15.7022556552       -3.9625935427        1.6818986714
 Na       -7.9190351566        6.1851030705       -0.2348920952
