117

 C       -14.4250398734       -6.0185065961        1.5674327711
 C       -13.7552691281       -4.6621347795        1.5358473638
 O       -13.1492789275       -4.2698098369        2.5322255939
 C       -14.0490064757       -3.7219269298        0.3186117361
 C       -13.2269442161       -2.4157880350        0.3141632286
 O       -12.4766707264       -2.1661222256       -0.6037750991
 C       -13.3466893178       -1.5119451604        1.4651385360
 C       -12.8199391866       -0.1104879934        1.2099932382
 C       -11.3795273778        0.0147988479        1.5534185540
 O       -10.9781801682       -0.6581364128        2.4801885146
 C       -10.4037578725        1.0041866970        0.8053299320
 C        -9.6103660972        1.7566888729        1.8589309790
 O        -9.8018038562        2.9550301349        2.0143377223
 C        -8.5729462863        1.1049146856        2.7394295628
 C        -7.3278662313        1.9973962161        2.7172674957
 C        -7.6075230138        3.4655923319        2.2654469577
 O        -7.3644102690        3.7709428457        1.1283406664
 C        -7.9556259427        4.6041486297        3.3599368073
 C        -8.9520936197        5.6379717026        2.7112399766
 O        -8.6536478213        6.3232027938        1.7770583255
 C       -10.4464009564        5.8011965302        3.1935025907
 C       -11.2622052363        6.6063777483        2.1828723073
 C       -12.2137094415        5.7558520372        1.3696115088
 O       -12.7340402526        4.7115944051        1.6678714605
 C       -12.5787791980        6.4184438908       -0.0176281691
 C       -11.2908456677        5.9983125144       -0.8756964478
 O       -10.2428113442        6.5607412947       -0.5344691286
 C       -11.3917497248        5.0771005524       -2.1310070902
 C       -10.4983708021        5.5276996912       -3.2671346955
 C        -9.1329156641        4.8368839221       -3.3082086721
 O        -8.5763799399        4.2907250546       -2.3710550173
 C        -8.3372728929        4.8514517645       -4.6881587636
 C        -7.7270686225        6.3059017636       -4.8611918145
 O        -8.4491073173        7.2409637421       -5.1738830011
 C        -6.2235907157        6.5446784600       -4.8068895280
 C        -5.8853185066        7.8410381699       -4.0244162703
 C        -6.6478552263        7.9437088652       -2.6523422053
 O        -7.6867573625        7.3685158878       -2.4540294943
 C        -6.0109784915        8.8118813081       -1.5073785421
 C        -5.1290098029        7.8015886019       -0.7349214441
 O        -5.5489081367        6.8574588652       -0.1038684185
 C        -3.6334281680        8.1024205424       -0.6559939479
 C        -5.2041023519       10.0244637268       -2.0339369626
 C        -7.0207598232        9.2506636290       -0.4872539883
 C        -7.3732478457        3.6419753159       -4.6434069083
 C        -9.3700356577        4.7023501596       -5.9569599149
 C       -13.8834293149        5.7749599463       -0.5142121268
 C       -12.6552070475        7.9865567577        0.0985030923
 C        -8.4866100766        3.9813105786        4.7049908002
 C        -6.6254935235        5.3271374949        3.6775101299
 C        -9.6418913084        0.1761395375       -0.2864476216
 C       -11.2216782274        2.0968622409        0.0334709037
 C       -13.8067563128       -4.5120745597       -1.0763701782
 C       -15.6257331588       -3.3665999531        0.3606367116
 H       -14.7253488673       -6.1615571266        2.5757590275
 H       -13.7003136117       -6.7758380439        1.2835766973
 H       -15.2065669818       -6.0139234395        0.9049079037
 H       -12.7092623589       -1.9307591431        2.2218242384
 H       -14.3402971371       -1.5087035001        1.9033514590
 H       -13.2904143277        0.6002587812        1.7680883944
 H       -13.1753861589        0.1091001446        0.2054729591
 H        -8.4105360450        0.0869474265        2.4603016373
 H        -8.8960352987        1.1089961399        3.7912464858
 H        -6.5673785642        1.6906309116        2.0018769064
 H        -6.8993464370        2.0211301842        3.7741576911
 H       -10.3574833362        6.3902582926        4.1310561521
 H       -10.9389399907        4.8029956733        3.3424284798
 H       -10.5989763252        7.2130576969        1.6044400302
 H       -11.9359128964        7.2228223630        2.7291451864
 H       -12.3975240906        4.9046347633       -2.4801752487
 H       -11.1170127519        4.0618508208       -1.8423285416
 H       -10.1622036450        6.5387406708       -3.2288854707
 H       -11.0670224363        5.4685620414       -4.2077515392
 H        -5.7468558483        6.5934657329       -5.8303943438
 H        -5.7963772666        5.6811300033       -4.3493175830
 H        -6.2731069345        8.7003129952       -4.5960466498
 H        -4.7994012381        8.0117626007       -3.8249248972
 H        -3.0973413993        8.1186164345       -1.6426284547
 H        -3.1432386267        7.3933444303       -0.0849413709
 H        -3.5040675175        9.0786378830       -0.1435935567
 H        -5.0051580582       10.6351505909       -1.1736053841
 H        -5.8555100116       10.5302527835       -2.7415986912
 H        -4.4062430445        9.6313289043       -2.6680737247
 H        -6.7061109568        9.4503323684        0.5339904085
 H        -7.8777096997        8.5744752903       -0.4972093527
 H        -7.4374077603       10.1737779447       -0.8309854854
 H        -6.8449249415        3.6134511172       -3.6881213083
 H        -6.6018581650        3.5710468324       -5.3962924495
 H        -8.0381519004        2.7923601564       -4.6296991204
 H        -8.8401937477        4.2419298051       -6.7467950113
 H        -9.6520503905        5.6444520833       -6.4197933758
 H       -10.2528300177        4.0807683711       -5.6053784337
 H       -13.8754023233        4.6688033754       -0.4723091364
 H       -14.1068923849        6.2333065603       -1.4494177787
 H       -14.6172930885        6.0752907836        0.2224203966
 H       -11.7378225622        8.4683280198        0.0816128407
 H       -13.0791170624        8.2946039268        1.0008581433
 H       -13.3186651686        8.3188967215       -0.7326304079
 H        -9.0083037608        4.6641854821        5.3234393598
 H        -7.7021786190        3.6591597022        5.3352085739
 H        -9.3091039578        3.2063652850        4.6620446048
 H        -6.7706555672        6.3358080022        4.1175516401
 H        -6.1869417432        5.4521957269        2.7076503185
 H        -5.9587001783        4.7439024420        4.4032711384
 H        -8.7829383397       -0.3499780350        0.1220668959
 H        -9.3472478862        0.8419570182       -1.0662433824
 H       -10.2879503817       -0.6051226788       -0.7014116268
 H       -10.5424483507        2.7333712499       -0.4095299462
 H       -11.9114987915        2.6976755915        0.6401498186
 H       -11.8324593284        1.5702167827       -0.7208689130
 H       -14.1390261996       -3.8810814065       -1.8912208964
 H       -14.4396766076       -5.4239952356       -1.0850730416
 H       -12.7157231476       -4.6357101080       -1.2489194072
 H       -16.1872952269       -3.9467449167       -0.3525797222
 H       -15.7867513802       -2.3380232563        0.1046044681
 H       -16.0837631986       -3.4997896798        1.3785446916
 Na       -7.8339686090        5.7187411635       -0.3286166589
