117

 C       -15.2072196627       -5.3919986152        2.0535049871
 C       -14.0835134156       -4.3487363733        1.6929687884
 O       -13.1035167620       -4.2339624544        2.3884209389
 C       -14.2522073528       -3.6127634338        0.2801619591
 C       -13.3176815711       -2.3219464728        0.3503072563
 O       -12.6382977341       -2.0022112665       -0.6210864050
 C       -13.2757173410       -1.4759838018        1.6205998322
 C       -12.7621518300       -0.0386407350        1.2730590643
 C       -11.3936283656        0.1740361878        1.8688342193
 O       -11.0496952437       -0.2040032118        2.9629704747
 C       -10.3961763646        1.0327891710        0.9519093713
 C        -9.3882007800        1.6930079493        1.9278827159
 O        -9.6817889019        2.7682353103        2.4246328117
 C        -7.9036287928        1.2585565676        2.1016926332
 C        -7.1309908884        2.3626030963        2.8880534438
 C        -7.4283239097        3.7913941655        2.4468105539
 O        -7.2469831639        4.0460882406        1.2479571412
 C        -7.9741628605        4.8699839840        3.5128638244
 C        -9.1714464512        5.6430050355        2.7611653876
 O        -8.9944353361        6.2143854664        1.6693570132
 C       -10.6180678304        5.6950408422        3.3396960619
 C       -11.4802194720        6.5375540708        2.3349348466
 C       -12.1746779676        5.7214446472        1.2627849281
 O       -12.6208663639        4.6059938790        1.4540552224
 C       -12.3778456517        6.3785360302       -0.1378781192
 C       -11.0703310960        6.1471158263       -0.9764690101
 O       -10.0709718618        6.7629512302       -0.7405059652
 C       -11.0604424363        4.9508485550       -2.0886498984
 C       -10.3503631969        5.3926063386       -3.3707819410
 C        -8.9565554169        4.6421669764       -3.5409985288
 O        -8.3941776271        4.0483887831       -2.6108401225
 C        -8.3323999948        4.6819914055       -4.9729546373
 C        -7.8405260887        6.1905209748       -4.9968372243
 O        -8.6833617638        7.0406078858       -5.1712063393
 C        -6.3583749221        6.5972631298       -4.9504123698
 C        -6.1237140586        7.8608066846       -4.1721619229
 C        -6.6024054009        7.6167016977       -2.6459427172
 O        -7.4800396363        6.7844434847       -2.4496080775
 C        -6.0334624341        8.5429787250       -1.5589035386
 C        -5.2185076529        7.5941545147       -0.6448914310
 O        -5.8252548081        6.6932115438       -0.0573880955
 C        -3.7188723017        7.6995124067       -0.5364189802
 C        -5.0822088736        9.6585922709       -2.0994488877
 C        -7.1226782382        9.2611132684       -0.6497241156
 C        -7.2482790016        3.6070635859       -4.9433336227
 C        -9.2966803420        4.4141025965       -6.1552621371
 C       -13.6539482967        5.7704829098       -0.7435824716
 C       -12.6017675628        7.8879362510       -0.0283255803
 C        -8.4214709697        4.2450847242        4.8367201290
 C        -6.8069011393        5.9466046433        3.7576948643
 C        -9.7927498200       -0.0050048547       -0.0111884551
 C       -11.1939808561        2.1439393168        0.2448101432
 C       -13.6079523623       -4.5735034030       -0.8163146699
 C       -15.6223982148       -3.0818164129       -0.0209236832
 H       -15.3182630383       -5.4966876171        3.0915396196
 H       -14.8616639505       -6.2434134508        1.5909082771
 H       -16.2093213156       -5.1760436744        1.6753211907
 H       -12.5472618214       -1.9066552137        2.2553671680
 H       -14.2174885077       -1.3376462754        2.1515271006
 H       -13.5389054335        0.6451671122        1.6064614564
 H       -12.7726897983        0.0340732031        0.2224736079
 H        -7.4453846033        1.0880247745        1.1096795300
 H        -7.7508820529        0.3042205237        2.5822934131
 H        -6.0524218708        2.0838704761        2.9516159568
 H        -7.4643772963        2.3044329084        3.9231466824
 H       -10.6457344327        6.0859609733        4.3748201914
 H       -10.9653836505        4.6363743092        3.3672077442
 H       -10.8774455412        7.3065185456        1.9347920388
 H       -12.1992280776        7.0228449738        2.9702786684
 H       -12.0979141887        4.6463669186       -2.2854002245
 H       -10.5717402948        4.0820853519       -1.6636896854
 H       -10.3084459045        6.4932332609       -3.3414336705
 H       -10.8557781006        5.1768563996       -4.2650148055
 H        -6.0241598635        6.7551910605       -6.0085426971
 H        -5.6679460662        5.8116810104       -4.6885641106
 H        -6.6739683035        8.7713526307       -4.4609807106
 H        -5.0746339726        8.2214009582       -4.2245588491
 H        -3.2540389291        7.5370248406       -1.4607409377
 H        -3.1539578963        7.0023058933        0.1680298133
 H        -3.5123784466        8.6931328932       -0.1602923328
 H        -4.7475113764       10.2943271234       -1.2464177907
 H        -5.6186810736       10.3014612820       -2.8450526006
 H        -4.1737716436        9.1779884415       -2.4984820625
 H        -6.6560471037        9.9741039619        0.0384749062
 H        -7.6055152056        8.5912460890        0.0465150409
 H        -7.9161191417        9.7215927495       -1.2676991935
 H        -6.7174513973        3.6002656334       -3.9942900879
 H        -6.5321076376        3.5751650423       -5.7538565719
 H        -7.7942081540        2.6512448463       -4.8778166243
 H        -8.6253525896        4.3588671683       -7.0685853691
 H       -10.0155474101        5.2413671868       -6.3062414119
 H        -9.8439345411        3.4817399213       -6.0877121329
 H       -13.3168954457        4.8756573615       -1.1618614369
 H       -14.0326475824        6.4032636114       -1.5385828512
 H       -14.4156249451        5.6889900226        0.0153627880
 H       -11.6341510843        8.3219366621        0.1963975068
 H       -13.3615063283        8.2428841100        0.6227242449
 H       -12.8729139796        8.2516586439       -0.9600698120
 H        -9.0801375706        4.8963858136        5.4051404040
 H        -7.5831458458        3.9332100175        5.4932483184
 H        -9.0064044227        3.3734441309        4.7184608625
 H        -7.0851583116        6.7376206136        4.4738139039
 H        -6.3349769618        6.3703071509        2.8310221719
 H        -6.1142431261        5.4022255057        4.3617953596
 H        -9.2268837690       -0.7319117351        0.5026771966
 H        -9.0706748568        0.4726752489       -0.7095054148
 H       -10.6437784864       -0.3975890142       -0.5118213805
 H       -10.4949136352        2.9702532644       -0.0443763307
 H       -11.9456917173        2.5271008096        0.8739954312
 H       -11.7653603503        1.7467479815       -0.5710532049
 H       -13.3218121296       -3.9925715451       -1.7283268926
 H       -14.3940512941       -5.3053414642       -1.0758583271
 H       -12.6721598722       -5.0749585456       -0.4683772241
 H       -16.4295709197       -3.7333379678        0.3396529972
 H       -15.6787198404       -2.9083234148       -1.1221556788
 H       -15.7456094348       -2.1168044945        0.4184448115
 Na       -7.9729058984        5.5905076836       -0.3599295318
