117

 C       -15.7935273020       -4.6834449006        2.3148750552
 C       -14.4236158525       -4.2209735129        1.8197396868
 O       -13.4995906290       -4.3688288744        2.5540231431
 C       -14.2357906464       -3.4263180366        0.4750419606
 C       -13.3131055490       -2.2178125929        0.6349936740
 O       -12.5584824396       -1.9471375694       -0.2847674861
 C       -13.3500359553       -1.4031878110        1.8826794904
 C       -12.8147035860        0.0321657431        1.6419274316
 C       -11.3917799122        0.0730370623        2.0287308361
 O       -10.9892685433       -0.3549175395        3.1075471943
 C       -10.2267715320        0.6115831680        1.0381434478
 C        -9.5045823076        1.6754505323        1.9005229973
 O       -10.0930989178        2.6356711371        2.3610967392
 C        -8.0232665487        1.4497169869        2.0828102056
 C        -7.1913189274        2.5874727067        2.7939936199
 C        -7.6832922364        3.9542755228        2.2676263997
 O        -7.6073721858        4.1167871269        1.0549087193
 C        -8.0880898487        5.1570235038        3.1643638695
 C        -9.2278494625        5.8919826923        2.5699791576
 O        -9.0792163046        6.5440228544        1.5236198748
 C       -10.6513641894        5.8616797073        3.1904556572
 C       -11.6777429947        6.6704153980        2.3729630687
 C       -12.1945780553        5.8561636941        1.1986707676
 O       -12.3067229017        4.6367102359        1.1954751249
 C       -12.4512188562        6.6099134843       -0.1753196758
 C       -11.0787040074        6.2557481189       -0.8615966655
 O       -10.1691772273        7.1227102023       -0.8872064908
 C       -10.8845034860        4.9987833318       -1.7133861712
 C       -10.1208640083        5.3452804119       -3.0441720788
 C        -8.8266120056        4.5127969754       -3.3180262270
 O        -8.2503339410        4.0462280522       -2.3814661371
 C        -8.1961700189        4.5271404115       -4.8069979330
 C        -7.8514474698        6.0824057626       -5.1866829957
 O        -8.8019379649        6.6677586036       -5.6031542102
 C        -6.4160177408        6.6267682881       -5.1779364044
 C        -6.0876985624        7.7763564421       -4.2640413519
 C        -6.3338720272        7.3915737008       -2.8127759983
 O        -6.8337033363        6.3178225242       -2.5305418598
 C        -5.9349269489        8.4387515467       -1.6146035548
 C        -5.2248216091        7.4009674468       -0.5490822867
 O        -5.8506032267        6.4169290920       -0.1249010392
 C        -3.7339263871        7.4241464889       -0.2622100896
 C        -5.0084103071        9.5314727925       -1.9939006798
 C        -7.2075952557        8.9283690697       -0.9027941568
 C        -6.9668772677        3.6188278357       -4.8612273880
 C        -9.2716520407        4.1128679894       -5.7813177332
 C       -13.7170921348        6.0346246678       -0.8420851061
 C       -12.5267049722        8.1452793905       -0.0911818606
 C        -8.2998280985        4.6590725537        4.6119828658
 C        -6.7973181912        6.1455927410        3.1988293414
 C        -9.3314888409       -0.5686057525        0.4767616433
 C       -10.8311093592        1.2854603106       -0.1705368122
 C       -13.5039253411       -4.4355760064       -0.5347130136
 C       -15.5296639628       -2.9774203196       -0.2635911245
 H       -15.7039214210       -5.6316703943        2.8152216177
 H       -16.5708410652       -4.7125135823        1.5952053676
 H       -16.0881998810       -3.9823086822        3.1222241965
 H       -12.7688201091       -1.7666055025        2.7696899394
 H       -14.4124952076       -1.3577902802        2.1177529297
 H       -13.3308862365        0.7951365933        2.2361749332
 H       -12.9994853586        0.1859738122        0.4650188573
 H        -7.4707190570        1.3700479833        1.1411091453
 H        -7.8456622081        0.4535289930        2.5845178568
 H        -6.2209380926        2.4268998783        2.4656310329
 H        -7.1226474804        2.5656622734        3.8882805137
 H       -10.6015195649        6.1140447608        4.2253463563
 H       -11.0064919912        4.8522989472        3.2439445602
 H       -11.2626901020        7.6945897282        2.1812606648
 H       -12.5580557091        6.8747215909        3.0461523305
 H       -11.8811485073        4.6007604752       -1.8257858269
 H       -10.2343668471        4.3398954950       -1.1013772187
 H        -9.7043341859        6.3204433966       -3.0603018247
 H       -10.9078825962        5.3862652510       -3.8216705148
 H        -6.3068674040        7.0357277647       -6.2411176735
 H        -5.7271192392        5.8186367497       -5.0268830994
 H        -6.6999531806        8.7026146059       -4.3590289239
 H        -5.0664135378        8.1543622729       -4.4139326944
 H        -3.2757052672        7.3409440706       -1.2535978894
 H        -3.3721431494        6.5724333952        0.3508388924
 H        -3.3167529728        8.3459657716        0.1181601997
 H        -4.8071220206       10.1610140931       -1.1470846026
 H        -5.4404107578       10.2017011404       -2.7382587114
 H        -4.0115395987        9.1892438936       -2.3603718542
 H        -6.9043852197        9.4216966259        0.0315142167
 H        -7.8716901841        8.1367492439       -0.5628767207
 H        -7.8061839583        9.6682491981       -1.3947837864
 H        -6.1933751163        3.9489474566       -4.1793903948
 H        -6.6579954320        3.6100757339       -5.8853268956
 H        -7.2084080442        2.5892189563       -4.7714700864
 H        -8.9805093158        4.0103272394       -6.7936566757
 H       -10.1790204065        4.7229443611       -5.6786937266
 H        -9.6152342519        3.0340956678       -5.5846864605
 H       -13.5494210167        5.0238624512       -1.2004325291
 H       -13.8931599017        6.7607236638       -1.5988332441
 H       -14.4956133469        6.0230148844       -0.1027979112
 H       -11.6141971468        8.5688759024        0.2727626187
 H       -13.3043572110        8.4757050624        0.5451979431
 H       -12.6241012153        8.5635743863       -1.1214138382
 H        -8.7115872368        5.3879375866        5.2584412798
 H        -7.4040289510        4.3530110498        5.1126171515
 H        -8.8798614236        3.6830241252        4.5478319170
 H        -6.8947892767        6.9156478634        3.9727609463
 H        -6.7776049629        6.6211100960        2.2466690923
 H        -5.8719699254        5.5240880768        3.1284430104
 H        -9.4118920592       -1.3755697008        1.1596083501
 H        -8.3217785222       -0.2263168113        0.3145164248
 H        -9.7237443885       -0.8693102432       -0.5032173222
 H       -10.1713403331        1.9205484427       -0.6521923529
 H       -11.6105701468        1.9379352969        0.1194302368
 H       -11.1433631269        0.5920180574       -0.9650348749
 H       -13.3064252531       -3.9197417597       -1.4717672527
 H       -14.0310553018       -5.3896618506       -0.7458679239
 H       -12.5902756275       -4.7927696801       -0.0003814871
 H       -16.2826201719       -3.7315582925       -0.3678603975
 H       -15.2522219128       -2.6206129386       -1.2267021805
 H       -15.9334751161       -2.1476359832        0.3783429620
 Na       -8.1892013793        5.7237457641       -0.5820358195
