117

 C       -16.7185261838       -4.2656575911        2.1555732869
 C       -15.2714399682       -3.8669076595        2.2139241469
 O       -14.6256828346       -4.0866127476        3.2492245605
 C       -14.5732114599       -3.2858075945        0.9797684603
 C       -13.3507435044       -2.3056515926        1.4315039967
 O       -12.3514738768       -2.2193477743        0.7897044481
 C       -13.6338157719       -1.2367437053        2.4737107861
 C       -12.6843159441       -0.0159437699        2.4068629980
 C       -11.2539845504       -0.4756875332        2.2010510635
 O       -10.7521334652       -1.2667467375        2.9945688901
 C       -10.1383077689        0.1061314189        1.1176544825
 C        -9.4836075184        1.3727691493        1.8230801982
 O       -10.1248114770        2.3047308863        2.3089743912
 C        -7.9495295658        1.5516957365        1.8221497504
 C        -7.5518178413        2.6973601216        2.7226921843
 C        -7.7144217110        4.1426454730        2.1573626893
 O        -7.3770325942        4.3333889497        1.0011062642
 C        -8.1706620891        5.2757453243        3.1054974991
 C        -9.4709796342        5.7816850998        2.3286515833
 O        -9.2916473945        6.4295205234        1.3266381507
 C       -10.9123687922        5.5647046733        2.9461603747
 C       -12.0312861053        6.4057125502        2.2067214969
 C       -12.2593043685        5.9538540244        0.7448759198
 O       -12.7907171444        4.9018879215        0.5066594105
 C       -12.0054315177        6.9385454002       -0.3898543943
 C       -10.9690904015        6.2987375042       -1.4463097250
 O        -9.8953618634        6.8377495995       -1.5238491749
 C       -11.3374999195        5.0481091710       -2.3126587249
 C       -10.4408983983        4.9012577879       -3.5539482579
 C        -9.0050721012        4.5340301834       -3.0989625853
 O        -8.8125097211        4.4479934574       -1.8839272407
 C        -7.9384308984        4.2025165487       -4.2050510392
 C        -7.5025513998        5.5062669928       -4.8129370853
 O        -8.3421315360        6.2475526553       -5.3559852474
 C        -6.0417357564        5.8511562659       -5.0146964897
 C        -5.9731778824        7.3863333130       -4.6022500523
 C        -6.3165801002        7.4802852333       -3.0933862000
 O        -7.0305054793        6.6763698352       -2.5970886807
 C        -5.6807649472        8.6600202999       -2.2435451910
 C        -4.8544008407        7.8198787886       -1.0419329611
 O        -5.3922278045        7.0353466887       -0.2686486600
 C        -3.4247596740        8.2342494852       -0.8695513768
 C        -4.7061582039        9.6339443209       -3.0605249279
 C        -6.8314769433        9.4391897247       -1.5591898460
 C        -6.8412514778        3.2566794525       -3.7453349929
 C        -8.6593601861        3.4042495743       -5.4454344104
 C       -13.3726804489        7.1118388150       -1.1748141908
 C       -11.3589768354        8.3003966756        0.0133477460
 C        -8.5859326778        4.7068202247        4.4795388041
 C        -7.1684158899        6.3755767543        3.1040862216
 C        -9.1634740302       -1.0628745905        0.9409847545
 C       -10.7477071733        0.5461476662       -0.1996472117
 C       -14.0274873942       -4.4825910242        0.1057368652
 C       -15.5275031148       -2.4376563570        0.0333793607
 H       -16.9370490986       -5.1170400193        2.8598381384
 H       -17.1125037975       -4.5480936992        1.1349182134
 H       -17.3617348803       -3.3964246429        2.4956437041
 H       -13.6679608474       -1.6799418891        3.4920367652
 H       -14.6757741062       -0.9329529068        2.3865431441
 H       -12.8812676238        0.5744192560        3.4311559760
 H       -12.8971941217        0.6669086419        1.6079011123
 H        -7.6700659373        1.7079157614        0.7940216450
 H        -7.4476356624        0.6586995965        2.1568623834
 H        -6.4380017605        2.7746877556        2.8894844516
 H        -8.0595710288        2.4911830241        3.6961848394
 H       -10.8837739636        5.8738595028        4.0154626559
 H       -11.2575545664        4.4889227544        2.8160448836
 H       -11.8181957080        7.4220942587        2.3522811789
 H       -12.9199687059        6.1114282145        2.7328211519
 H       -12.3959192829        5.0509186944       -2.5021622759
 H       -11.2791661677        4.2781852531       -1.5213491021
 H       -10.4820447780        5.8141980513       -4.1645016265
 H       -10.9159560470        4.0532933915       -4.1382033656
 H        -5.5741169423        5.5977861814       -5.9668669665
 H        -5.3477175860        5.3770958495       -4.3218205943
 H        -6.7665283134        7.8498594044       -5.1578131284
 H        -5.0025949739        7.7779585380       -4.8847271873
 H        -2.8366240569        8.1911166955       -1.7785235743
 H        -2.9363974616        7.6144076782       -0.1345442909
 H        -3.4108722839        9.2833372234       -0.4494836718
 H        -4.2156994875       10.4764134794       -2.6024130876
 H        -5.2793965624       10.1090088500       -3.8474284986
 H        -3.8906443456        9.1927767456       -3.5370717644
 H        -6.3945293256       10.1391389103       -0.8827161795
 H        -7.4314808584        8.7771184666       -0.9782888193
 H        -7.4500138048        9.9230559319       -2.3091748138
 H        -6.0479640947        3.7500119483       -3.1927306837
 H        -6.4107915499        2.7701066448       -4.6067976114
 H        -7.3338697382        2.4544107384       -3.1797042807
 H        -7.9085118995        3.4920292047       -6.2777206867
 H        -9.6476376255        3.7562538221       -5.7721027618
 H        -8.6932580807        2.3343015870       -5.4140213307
 H       -13.8109332706        6.1502290894       -1.3913935497
 H       -13.2866360916        7.5234302048       -2.1756249543
 H       -14.0271334213        7.6492761204       -0.4825474645
 H       -10.3532161041        8.1555714884        0.5073072504
 H       -12.0887076514        8.9416017927        0.5992801486
 H       -10.9922325335        8.8079762124       -0.8508236559
 H        -9.0044108608        5.5334610270        5.0807049027
 H        -7.6558621544        4.3673824063        5.0299827364
 H        -9.2004972396        3.8754688014        4.3798354310
 H        -7.6147340298        7.2624138446        3.5234636748
 H        -6.7187480687        6.6206426063        2.1112565185
 H        -6.3988630077        6.1844272256        3.8233760888
 H        -8.9622887087       -1.6195010757        1.8366507752
 H        -8.1340179646       -0.7214773183        0.6033762371
 H        -9.6395637933       -1.6783336939        0.2013365172
 H       -10.0241830342        0.4925583920       -1.0515645319
 H       -11.3202391214        1.4432650078       -0.1722301120
 H       -11.4249308705       -0.1989359301       -0.4854914730
 H       -13.2955925389       -4.2772797671       -0.6820718283
 H       -14.8986298860       -4.9316140255       -0.3727007938
 H       -13.6028258286       -5.3209032126        0.6489885899
 H       -16.2023584074       -3.1079674344       -0.4805748630
 H       -14.9182674424       -1.9871305118       -0.7577033764
 H       -16.0467749278       -1.6430234280        0.5517790066
 Na       -7.8403151169        6.2070824836       -0.4694370475
