117

 C       -16.9845841445       -4.3400923665        2.4138281604
 C       -15.6926747419       -3.6113254375        2.5116189891
 O       -15.3222670513       -3.1465312142        3.6189858821
 C       -14.8699886201       -3.3052675746        1.2321942006
 C       -13.4847826889       -2.5522464919        1.3793681643
 O       -12.6742860535       -2.6028557220        0.4797245904
 C       -13.0815078463       -1.7453736632        2.6415002970
 C       -12.4608544119       -0.3370574977        2.5256741473
 C       -10.9719642802       -0.3523383549        2.3933867660
 O       -10.2862161495       -1.0041612191        3.1765401895
 C       -10.1029254335        0.2500151161        1.2412931674
 C        -9.2993051981        1.4412220117        1.8875946330
 O        -9.8693619561        2.4262556756        2.3216268521
 C        -7.7184058060        1.4770145854        2.0184539222
 C        -7.2571683497        2.6719210318        2.8767900108
 C        -7.6398850220        3.9837371513        2.1637517435
 O        -7.4352469087        4.1492329436        1.0001325606
 C        -8.3378878055        5.1861740434        2.9794328246
 C        -9.6186864429        5.5614106548        2.0747172508
 O        -9.5335727411        6.1468065600        1.0140220156
 C       -11.0439186858        5.3252340870        2.6390643312
 C       -12.0276366296        6.3988604845        1.9595125353
 C       -12.1956565204        6.0793863901        0.4516409662
 O       -12.5431098138        5.0047121557        0.0414278534
 C       -11.8531983816        7.2131437990       -0.5615838547
 C       -10.7346016979        6.7616018353       -1.5232655495
 O        -9.7014580486        7.3704811303       -1.6623645685
 C       -10.9996143103        5.5193492825       -2.2976137221
 C       -10.1359396372        5.0477498534       -3.4450476025
 C        -8.8147496244        4.4273047773       -2.9756930914
 O        -8.5637588658        4.1561947457       -1.8333559314
 C        -7.8067302333        3.9426440606       -4.0983634469
 C        -7.3618190765        5.1418610589       -5.0005729618
 O        -8.2945114005        5.7263247739       -5.6080699148
 C        -5.9430677228        5.6831263662       -5.2128180246
 C        -5.8755641852        7.2073345753       -4.6840821209
 C        -6.1600948974        7.2315515179       -3.1456010373
 O        -6.7047691231        6.2797929958       -2.5997871126
 C        -5.8375802266        8.4744697003       -2.3778261681
 C        -5.0811592924        8.0603955320       -0.9991457248
 O        -5.6707353492        7.6018197942       -0.0905878293
 C        -3.6216269204        8.3376517614       -0.9255190888
 C        -4.9744614051        9.3837589522       -3.1510257568
 C        -7.2058999722        9.2562566027       -2.0348298275
 C        -6.7607224467        3.1879138203       -3.3235715378
 C        -8.7259796156        2.9518539663       -5.0305030847
 C       -13.1224310134        7.4253771953       -1.4815125001
 C       -11.5032956977        8.6204345366       -0.0219256682
 C        -8.8349023647        4.7601952738        4.4748233567
 C        -7.3856138480        6.3349358620        3.1850305602
 C        -9.1671272250       -0.8441857024        0.6544500208
 C       -10.8870957141        0.9324631156        0.1540089467
 C       -14.6885017563       -4.6223980866        0.3540266045
 C       -15.7061372159       -2.2304089515        0.3755009554
 H       -17.3170419769       -4.6557394642        3.4140004385
 H       -17.0232570046       -5.1035493646        1.6664034421
 H       -17.8471442030       -3.5946487841        2.2220753458
 H       -12.4161420545       -2.4251890665        3.1742777433
 H       -13.9883636004       -1.6811054504        3.1970860134
 H       -12.6599747365        0.1866122958        3.4582329094
 H       -12.8272778788        0.1933676968        1.6849570382
 H        -7.3226439720        1.6170098754        1.0081908543
 H        -7.2186086277        0.5507702944        2.3418611147
 H        -6.1757041065        2.6654147942        3.0137801894
 H        -7.6939827519        2.5813706060        3.9104646847
 H       -11.0935340220        5.3909558626        3.7582148798
 H       -11.4040845841        4.3960915924        2.1711875212
 H       -11.6784444612        7.4131813796        2.1994347488
 H       -12.9912610974        6.3695381126        2.3875850932
 H       -12.0552500894        5.5469720698       -2.5916385275
 H       -11.0274545177        4.7680318698       -1.5092386576
 H        -9.9183056783        5.8371122244       -4.1951056468
 H       -10.7157478526        4.3479007908       -4.0353386904
 H        -5.7155156808        5.5258261410       -6.3370528538
 H        -5.1493656115        5.2041474872       -4.6936741258
 H        -6.6768637988        7.8549051798       -5.1497384499
 H        -4.9351823765        7.6901997863       -4.9270792447
 H        -3.0933153429        7.7868579879       -1.6885024392
 H        -3.1171867786        7.9582904239        0.0277425240
 H        -3.4290134300        9.3727624427       -0.9488868460
 H        -4.7591418886       10.2566838081       -2.5709638440
 H        -5.3805064805        9.7584147198       -4.0787805341
 H        -4.0819550657        8.9173395493       -3.5572021623
 H        -7.0717348122        9.8914881322       -1.1856727017
 H        -7.9266359096        8.4896671545       -1.8843127090
 H        -7.4161037112        9.8514772903       -2.8722671409
 H        -6.3069742762        3.8938269963       -2.5896891422
 H        -5.9771428577        2.8046612861       -4.0069852113
 H        -7.1787103153        2.3500111952       -2.7549563463
 H        -8.1690642220        2.5160071693       -5.8211184934
 H        -9.5844970324        3.4648972822       -5.4302080116
 H        -9.0850607721        2.1273670779       -4.3332281324
 H       -13.7719833730        6.5389432774       -1.5752023481
 H       -12.8971720527        7.8530480722       -2.4847563184
 H       -13.8474801195        8.1760060387       -1.0724613901
 H       -10.6275778269        8.6205152809        0.6911857895
 H       -12.3285208087        8.9635268435        0.6286143674
 H       -11.4408868374        9.3728410937       -0.8669961231
 H        -9.1411874763        5.6594833843        5.0624065019
 H        -8.0071884189        4.2158331420        5.0400539931
 H        -9.7269602997        4.1471748124        4.4142528360
 H        -7.8182056608        7.2333245563        3.5540004841
 H        -6.9296078893        6.6019828487        2.2546193211
 H        -6.5326846539        5.9141245119        3.7154524798
 H        -8.9356890105       -1.5985836681        1.3681612963
 H        -8.2939965981       -0.4719437915        0.1156872532
 H        -9.7228758217       -1.4385810386       -0.1400411387
 H       -10.3103695563        1.3069415998       -0.6513860798
 H       -11.3432696935        1.8664814561        0.4895877167
 H       -11.6676076930        0.2004095029       -0.2346409168
 H       -13.8469701873       -4.5290501288       -0.2610252340
 H       -15.4060676592       -4.9064850318       -0.3792898737
 H       -14.5843824002       -5.5230790087        0.9652324528
 H       -16.6534866047       -2.5774249483       -0.0006981840
 H       -15.0658943002       -1.8992834515       -0.3991699263
 H       -15.9447084715       -1.3535316925        1.0305102725
 Na       -7.6257563521        6.2654062165       -0.4403445722
