117

 C       -17.0236805424       -4.3032267597        2.7678814168
 C       -15.7953998808       -3.4070020369        2.7029654926
 O       -15.4770331830       -2.7416231626        3.6798270935
 C       -14.9647938321       -3.2423590490        1.4151172010
 C       -13.4593002530       -2.6421880113        1.5813980269
 O       -12.7462672042       -2.6243662609        0.6245838438
 C       -13.0823657659       -1.7397447881        2.8352153368
 C       -12.3557270026       -0.4266545523        2.4584178657
 C       -10.8543431480       -0.4416577256        2.2710775852
 O       -10.1494437016       -0.9666799407        3.0872766835
 C       -10.0916201196        0.4546021552        1.1310255352
 C        -9.3448477831        1.5668357321        1.8770357655
 O        -9.9399831930        2.5800278820        2.1818100360
 C        -7.8869316741        1.4228572430        2.2719585341
 C        -7.1892888186        2.5920347692        2.9302191263
 C        -7.6138611103        3.9384108125        2.1930885426
 O        -7.0712779614        4.0956018697        1.1064313549
 C        -8.4549260332        5.0666879522        2.9263172417
 C        -9.7012391863        5.5214765210        2.1786050071
 O        -9.5809926324        5.9728103350        1.0333686450
 C       -11.1511453831        5.4405969081        2.7264094376
 C       -11.9696093572        6.5352722860        1.9628794067
 C       -12.2433307154        6.2147545307        0.5051162606
 O       -12.7500160415        5.1827596860        0.1977923928
 C       -11.9714755995        7.3255580612       -0.7107969375
 C       -10.7911237550        6.7736182044       -1.6088869092
 O        -9.6619595047        7.2041010055       -1.3935335527
 C       -11.0101520633        5.5972668363       -2.5615037537
 C        -9.9234431769        5.1558683537       -3.5715723288
 C        -8.6185104109        4.4390596800       -3.1187214851
 O        -8.4549867722        4.1357676043       -1.9220189708
 C        -7.6581015471        3.7593546821       -4.1934874045
 C        -7.1989842070        4.9514926705       -5.1285312454
 O        -8.0414333685        5.4972106012       -5.8785608457
 C        -5.7315497159        5.4532237547       -5.2167469352
 C        -5.5207729866        6.9372829939       -4.6548658620
 C        -5.9954380727        7.1188899436       -3.2096510080
 O        -6.4927089258        6.1884780857       -2.5728041518
 C        -5.8085071357        8.5613070395       -2.4943395626
 C        -5.4279549862        8.2293894728       -0.9995923192
 O        -6.1301293785        7.5703222504       -0.2734327210
 C        -3.9491045199        8.3990802086       -0.6361840615
 C        -4.8339952183        9.4783521922       -3.2430774201
 C        -7.2615842379        9.0910605920       -2.5925486541
 C        -6.5891458234        3.0383815215       -3.3272151633
 C        -8.4874034384        2.7435167042       -4.9317348887
 C       -13.3203859566        7.5580624200       -1.4013527721
 C       -11.4757061198        8.6338606365       -0.0860105352
 C        -8.8617596298        4.6119690206        4.2918210382
 C        -7.4933136131        6.3007543459        3.1365312953
 C        -9.1470167897       -0.5573015998        0.3980922421
 C       -11.1036870172        1.0957630552        0.1282263906
 C       -14.8857808726       -4.3710482997        0.4642254326
 C       -15.5875561105       -2.0315258545        0.7381231874
 H       -17.5219322545       -4.2678008155        3.7543344179
 H       -16.8029681345       -5.3449982382        2.4948720586
 H       -17.8346316968       -3.9843246934        1.9936359366
 H       -12.4970718689       -2.4255074611        3.4653766113
 H       -13.9910365689       -1.4680768139        3.3064465158
 H       -12.5030476265        0.3010379546        3.3600304312
 H       -12.7464934304        0.0236507360        1.6333723052
 H        -7.2715090844        1.1176890410        1.4586175630
 H        -7.8449129855        0.5733426125        2.9499588096
 H        -6.1065927083        2.4404931921        2.8132003047
 H        -7.3448002706        2.5688348435        4.0618955563
 H       -11.2405824692        5.7161618671        3.8250864917
 H       -11.5670956814        4.4434454933        2.4393531048
 H       -11.5500631517        7.5066853850        2.1765935209
 H       -12.9045382315        6.5928638984        2.4154191283
 H       -11.8607328695        5.9232287545       -3.1820245680
 H       -11.3641633030        4.7515808687       -1.9529801747
 H        -9.5903260240        6.0504707710       -4.1735031601
 H       -10.4563677668        4.5607861223       -4.3409407284
 H        -5.4547190784        5.5252545646       -6.3312987863
 H        -5.1493414242        4.7730594150       -4.6618368880
 H        -5.9485151188        7.7310263758       -5.3248208151
 H        -4.4900396692        7.2038309515       -4.6085277440
 H        -3.4064102954        7.8939779392       -1.4463696133
 H        -3.6815544288        7.8670177535        0.2991020606
 H        -3.5190022216        9.3937662652       -0.6069383247
 H        -4.7448031532       10.4143520665       -2.7099885318
 H        -5.2818169069        9.7191967295       -4.2222297698
 H        -3.8150518925        9.1439443884       -3.4147435339
 H        -7.1805734231       10.1702970427       -2.5693782220
 H        -7.7771681039        8.6454658632       -1.7470888856
 H        -7.7256114599        8.8208125186       -3.5250901528
 H        -5.9925372985        3.6586929647       -2.6713907168
 H        -5.9198283795        2.5129959750       -3.9555046912
 H        -7.1016125279        2.4388860015       -2.6319469574
 H        -7.8771541104        2.0673350248       -5.5205075841
 H        -9.0921519954        3.2601673665       -5.6879878728
 H        -9.1533204675        2.3559795396       -4.1149601995
 H       -13.7993213577        6.6676500997       -1.6965913520
 H       -13.2350339866        8.1856417663       -2.2486163825
 H       -14.0463997610        8.1553578035       -0.9048369463
 H       -10.6155297378        8.5127761924        0.6435662044
 H       -12.2345997079        9.2048020695        0.4538578821
 H       -11.2085582961        9.2702911659       -0.9097248444
 H        -9.2796370125        5.4762425457        4.7737020583
 H        -8.0089494156        4.1618369114        4.8821946391
 H        -9.6302899079        3.9369804151        4.2221573283
 H        -7.9015930770        6.9362539320        3.9230316051
 H        -7.1482888983        6.9437653097        2.2850441997
 H        -6.5677633177        5.8862227757        3.6142885591
 H        -8.2309942159       -0.7989146777        0.8249976902
 H        -8.9820890639       -0.2046948460       -0.6438545785
 H        -9.6096380687       -1.5491251875        0.2252136492
 H       -10.5230642943        1.6565925689       -0.5879390595
 H       -11.8257894318        1.7445724513        0.6091254826
 H       -11.6727355752        0.3600222743       -0.4256398124
 H       -14.4919413515       -4.2203515740       -0.5236915741
 H       -15.8877663791       -4.7601145866        0.2539003517
 H       -14.2540803504       -5.2284438789        0.7984898939
 H       -16.6125432746       -2.2835452048        0.4654188111
 H       -15.0388010429       -1.7723602284       -0.1437168642
 H       -15.5784323446       -1.1298894314        1.4296669379
 Na       -7.7965135671        5.9508368370       -0.4284213547
