117

 C       -16.8712296273       -4.3714555235        2.1894480377
 C       -15.4254889826       -3.8464361055        2.3022485297
 O       -14.7852134138       -4.0062077305        3.2763918370
 C       -14.6957697239       -3.2384390038        0.9542531482
 C       -13.4248480545       -2.2335571620        1.3612977279
 O       -12.3740243643       -2.3705826869        0.7710970363
 C       -13.4937736632       -1.2956091725        2.6120855632
 C       -12.5993424926       -0.0333584636        2.3814269237
 C       -11.1105371794       -0.4383488128        2.2549045326
 O       -10.6448816634       -1.1994813631        3.0536712682
 C       -10.1072482147        0.1847935855        1.1756659746
 C        -9.4685253309        1.4312589894        1.8155390577
 O       -10.1865069110        2.2802196148        2.3626822589
 C        -7.9646542452        1.4653243727        1.8973669740
 C        -7.4756554269        2.6619243947        2.6404433655
 C        -7.7007376157        4.0836489555        2.0159330440
 O        -7.3032269419        4.3751480686        0.8773591842
 C        -8.3116074308        5.2113409399        3.0464674396
 C        -9.5574859354        5.8567716217        2.4055760637
 O        -9.4167972697        6.5174726201        1.3637565265
 C       -10.9597238457        5.4915044035        2.8959171060
 C       -12.0845381455        6.3400640121        2.2021484154
 C       -12.2773535907        5.9884532343        0.7198283486
 O       -12.7261684483        4.8690299445        0.4008281044
 C       -11.9623685333        7.0212854073       -0.5084876291
 C       -10.9187815933        6.3426795671       -1.4840799334
 O        -9.7994878404        6.8251084106       -1.5323799560
 C       -11.2871243493        5.1290491286       -2.3282277094
 C       -10.3785101397        4.9764105253       -3.5003142663
 C        -9.0038505185        4.4732306842       -3.1216888683
 O        -8.7205652489        4.3556268867       -1.9202287741
 C        -7.9652767941        4.0517180950       -4.2299007192
 C        -7.5251348229        5.4282898243       -4.9246502842
 O        -8.3711242767        6.1679203873       -5.3016618297
 C        -6.0559235219        5.9064622203       -4.9788417463
 C        -5.9897903170        7.4059945064       -4.5785221450
 C        -6.2629985651        7.5037735421       -3.1340376817
 O        -6.9253601367        6.6023046151       -2.5867043789
 C        -5.6837210434        8.6105095917       -2.1793743282
 C        -4.8461933372        7.9742171838       -1.0667764640
 O        -5.4312538318        7.1794149230       -0.3206565953
 C        -3.3552141451        8.3387121412       -0.9324216199
 C        -4.8212287262        9.5578508331       -3.0259782701
 C        -6.7329895497        9.5091351582       -1.5442915438
 C        -6.8392527817        3.1413633714       -3.6306117516
 C        -8.6910840514        3.2076422729       -5.3139849288
 C       -13.3273757833        7.3070796823       -1.1526717998
 C       -11.3187465230        8.3340842336       -0.0686742973
 C        -8.5655608678        4.6423502600        4.4168971193
 C        -7.2901966516        6.4353490571        3.1163156671
 C        -9.0528361575       -0.9211717786        0.9371590296
 C       -10.7572566534        0.5977855440       -0.1557599286
 C       -14.1272947758       -4.4496571971        0.2135299319
 C       -15.5704051638       -2.4656695118        0.0364772785
 H       -17.1376035545       -5.1099810822        2.9817296264
 H       -17.1538116654       -4.7864274497        1.1608371501
 H       -17.5245173448       -3.5475608968        2.3377746318
 H       -13.0981909043       -1.8725231088        3.4029079106
 H       -14.5060507906       -1.0986705837        2.9743315430
 H       -12.7479313869        0.5504655482        3.2929859217
 H       -12.8497032239        0.6574331809        1.4896647186
 H        -7.5179623143        1.3888347375        0.8848297351
 H        -7.6698434859        0.5673284328        2.4143033644
 H        -6.3559425819        2.6594584531        2.8741272165
 H        -8.0424808046        2.6222015582        3.5453434468
 H       -10.9943171217        5.8255741361        3.9609949025
 H       -11.1872264776        4.3847078352        2.7666491716
 H       -11.8087116661        7.3422272685        2.3710875775
 H       -12.9535494367        6.1050434051        2.7739193022
 H       -12.3705414481        5.1813102719       -2.5189697521
 H       -11.2610479259        4.3205109641       -1.6163554766
 H       -10.3084156132        5.8975422113       -4.1219761701
 H       -10.8444035301        4.1933757953       -4.1087156930
 H        -5.7130748659        5.8963514117       -5.9940278534
 H        -5.1642178806        5.3156434792       -4.5207033191
 H        -6.7330725939        7.8219339873       -5.2199308583
 H        -4.9671343527        7.7832078319       -4.8384764272
 H        -2.7689078601        8.0413867907       -1.8394961743
 H        -2.9303402156        7.7411358873       -0.1873233541
 H        -3.1361775134        9.3911555808       -0.6364461869
 H        -4.3419102385       10.4292991361       -2.5627094956
 H        -5.4104609021       10.0557202699       -3.7912979678
 H        -3.9545721546        9.1189475001       -3.5643592829
 H        -6.2072459350       10.4346772273       -1.4362120141
 H        -6.9837303966        9.2112310223       -0.5427644782
 H        -7.6021597525        9.5947109844       -2.1721081768
 H        -6.2430402499        3.7280997103       -2.9616795533
 H        -6.1926179368        2.8744115955       -4.4857732359
 H        -7.1837700268        2.1634986869       -3.2823614358
 H        -7.9729283636        2.9946142161       -6.1166104851
 H        -9.6121290255        3.6306973175       -5.6400365917
 H        -8.8512714444        2.2263183105       -5.0217648118
 H       -13.7088548003        6.4553628131       -1.7651105606
 H       -13.2458853118        8.0448602532       -1.9661609424
 H       -14.0478284759        7.5161678161       -0.3567708689
 H       -10.3203548381        8.1846788272        0.3155839752
 H       -12.0302913818        8.8182292779        0.6466047968
 H       -11.0513713724        9.0122848925       -0.9099474712
 H        -8.6902337153        5.5738960739        5.0110669670
 H        -7.6510045307        4.2550503859        4.8082685386
 H        -9.3709565690        3.8394000320        4.5169013340
 H        -7.8164402976        7.2754843426        3.6021016471
 H        -6.9015092981        6.7665910577        2.1751893473
 H        -6.4677736860        6.2486998481        3.7908282258
 H        -8.8292789742       -1.5690572592        1.8589403005
 H        -8.0900798699       -0.5040659778        0.7040878797
 H        -9.3905828038       -1.5213094482        0.1098829911
 H        -9.9783827974        0.6466360573       -0.9548418952
 H       -11.3723385064        1.5388670845       -0.1193702465
 H       -11.3784505109       -0.1964318238       -0.5612411864
 H       -13.6450303714       -4.2790453584       -0.7552385355
 H       -14.9628904142       -5.0959514259       -0.0227712679
 H       -13.5243368709       -5.1024557389        0.7768898723
 H       -16.3824669682       -3.0992350501       -0.3570348545
 H       -14.9827362437       -2.1685340613       -0.8548916743
 H       -15.9423538266       -1.6154459189        0.5113079871
 Na       -7.8556237016        6.0980029155       -0.4879076592
