117

 C       -15.2508159705       -4.3594948609        3.6667407576
 C       -15.4450381867       -2.8650128906        3.4418559940
 O       -15.8886622968       -2.1192724251        4.3249249375
 C       -14.9245137816       -2.2752561979        2.0611784324
 C       -13.3851699365       -1.9665948191        2.1542284682
 O       -12.5925055386       -2.6570504144        1.5465952912
 C       -12.9005666341       -0.8747971989        3.1455248542
 C       -12.2976295845        0.3493071298        2.4927403105
 C       -11.0528536190       -0.0506487778        1.7938306064
 O       -10.3222391154       -0.9332063140        2.2540962996
 C       -10.5411467898        0.7535967092        0.5251822886
 C        -9.7285076351        1.8466424622        1.2418488590
 O       -10.3510890939        2.8268689237        1.6434847054
 C        -8.2571196192        1.6102607143        1.6336911607
 C        -7.8607491033        2.5796310692        2.7630082793
 C        -7.9375377552        3.9682451728        2.1906660489
 O        -7.6727843970        4.1890410101        1.0139329422
 C        -8.5376508586        5.2702895139        3.0046947695
 C        -9.8069959287        5.6702191023        2.1636659679
 O        -9.6322793301        6.2409853682        1.1164886992
 C       -11.2803247728        5.5636656591        2.6954262648
 C       -12.1999115625        6.4431228338        1.8055957124
 C       -12.1331270971        5.9388847470        0.2920003933
 O       -12.4649653991        4.7838784231        0.0617810068
 C       -11.7498869806        6.8719259789       -0.8230098998
 C       -10.6547960234        6.1977777693       -1.7448709074
 O        -9.5924893302        6.7834209309       -1.8833607614
 C       -11.0767138995        4.9329056520       -2.5590327230
 C       -10.0873608473        4.7255101433       -3.7556468470
 C        -8.7421924969        3.9649762919       -3.3627616425
 O        -8.3437398185        3.7822282277       -2.2342319111
 C        -7.7259839853        3.4360350129       -4.5088556084
 C        -6.7794132826        4.6004974556       -4.7922825858
 O        -7.1609711270        5.5714608144       -5.3938800363
 C        -5.3206779451        4.4962493515       -4.2019231374
 C        -4.7114329649        5.8770180194       -3.9153149856
 C        -5.5400267770        6.5046160173       -2.6579988396
 O        -6.0120070908        5.6585706582       -1.9318293022
 C        -5.5737787610        8.0477306668       -2.4765710217
 C        -5.6566486518        8.3908057649       -0.9343396829
 O        -6.2959112846        7.6176565679       -0.2284729763
 C        -5.1716700997        9.7127491969       -0.5258395109
 C        -4.3004926577        8.7831395677       -3.1525525703
 C        -6.9043055430        8.5684216242       -3.1406971309
 C        -7.1090507776        2.1978384382       -3.8091881958
 C        -8.4503426597        3.0164933985       -5.8188404065
 C       -12.9496194438        7.2064802109       -1.7020001479
 C       -11.1712262093        8.2065781491       -0.4115462629
 C        -8.9298732066        4.8305213819        4.4012755181
 C        -7.3766227490        6.3307555248        3.0853224241
 C        -9.7103355893       -0.1470414290       -0.4780621611
 C       -11.7257541510        1.3402896703       -0.3030397496
 C       -15.2287971599       -3.3666310606        0.9922315505
 C       -15.7182001288       -0.9269815697        1.7320896253
 H       -15.8916700085       -4.6670190672        4.5243345186
 H       -14.1723504194       -4.6119205631        3.9187264545
 H       -15.5640611925       -4.9652831477        2.8726295665
 H       -12.1321010724       -1.3250207608        3.7976751042
 H       -13.6928547882       -0.5514841339        3.8344039215
 H       -12.0500731172        1.1021595491        3.2829084535
 H       -13.0066416817        0.8707748957        1.6746503231
 H        -7.6513109699        1.6487147183        0.7075983363
 H        -8.2451524028        0.5614800628        2.0477208158
 H        -6.8810763204        2.3693159872        3.1256059907
 H        -8.5634344198        2.4191015202        3.5730100344
 H       -11.2722158228        5.9023307405        3.7049443041
 H       -11.6242220330        4.5618172488        2.8508518204
 H       -11.8717508770        7.4924168222        1.7932020041
 H       -13.2655870539        6.3227252154        2.2350045695
 H       -12.1012729444        4.9381585400       -2.9315892743
 H       -10.8859059035        4.0848987781       -1.8594610007
 H        -9.8081923334        5.6746169487       -4.1779666456
 H       -10.6305833813        4.1564690736       -4.4922656151
 H        -4.7775469565        4.0583779901       -4.9817996261
 H        -5.2588270340        3.6893228265       -3.4152263079
 H        -4.6734559809        6.5902455659       -4.7638708886
 H        -3.6652553709        5.7761118386       -3.5728530973
 H        -4.1121428117        9.8306638837       -0.4335867018
 H        -5.5391512247       10.1108596751        0.4142130509
 H        -5.5133661358       10.4442816008       -1.3082246878
 H        -4.5276164695        9.8219879985       -3.2688444734
 H        -4.1057175176        8.3396110251       -4.1100359792
 H        -3.4379803474        8.5112453450       -2.6225104680
 H        -7.2700331627        9.4159791826       -2.6221313621
 H        -7.5526312553        7.7480200993       -2.9827839682
 H        -6.7147470816        8.7758348251       -4.1726167867
 H        -6.3475911686        2.3875349008       -3.0781750893
 H        -6.6274892100        1.5080884473       -4.4697823239
 H        -7.8744771839        1.6522504925       -3.2562745526
 H        -7.6772274318        2.5083361019       -6.4735424357
 H        -8.7795350620        3.9557069069       -6.2526899328
 H        -9.2252969727        2.3524293806       -5.5573412919
 H       -13.5804696689        6.3683154774       -2.0486930079
 H       -12.7574258879        7.9141441352       -2.5363007128
 H       -13.6425497270        7.8462986830       -1.0983775856
 H       -10.4015607506        8.0703493795        0.3506171285
 H       -11.9489803337        8.9009166278        0.0807889222
 H       -10.8661033124        8.7658840541       -1.3202678926
 H        -9.3984669617        5.6267963218        4.9864795281
 H        -8.1100426107        4.3633121660        4.8545916348
 H        -9.7631564837        4.0432070806        4.4981050864
 H        -7.7557306017        7.3364664617        3.2710193738
 H        -6.8984263315        6.4265035711        2.0830094487
 H        -6.5954729778        6.0384624560        3.7703161081
 H        -9.1681848520       -0.9682684043        0.0293591305
 H        -9.0108591498        0.3875603222       -1.1915518530
 H       -10.3490105707       -0.7036623895       -1.0884552737
 H       -11.3371569432        1.9143478791       -1.1943010102
 H       -12.2551444905        2.1455925035        0.2067976843
 H       -12.3032537513        0.4907493863       -0.5589009000
 H       -15.1625639347       -2.9199202817       -0.0033669012
 H       -16.2776038231       -3.6383441725        1.0160023112
 H       -14.6496373314       -4.2553686981        1.0758213725
 H       -16.7857946295       -1.0194928144        1.5899109340
 H       -15.2012589648       -0.5546698302        0.8329235854
 H       -15.5481940865       -0.1878284773        2.5202919184
 Na       -7.8731647749        5.8147868256       -0.6917422150
