117

 C       -15.4505264868       -4.4082315298        3.6801133656
 C       -15.4068497380       -2.8958629891        3.4379438008
 O       -15.7304080326       -2.0911210726        4.2203910512
 C       -14.9127504885       -2.3392761133        1.9912105161
 C       -13.4209026687       -2.0454713537        2.1377709512
 O       -12.5774357501       -2.6469082290        1.5255680609
 C       -13.1159815399       -0.8479911348        3.1267091480
 C       -12.3319379299        0.2776829396        2.4400710130
 C       -11.0193021365       -0.1617905804        1.7823252225
 O       -10.2894890719       -0.9720508227        2.2760350384
 C       -10.5685882901        0.6821372314        0.5195677214
 C        -9.7554600140        1.8139985926        1.2673269774
 O       -10.3614693660        2.7603902488        1.7054760665
 C        -8.2711620204        1.5962874665        1.5972455053
 C        -7.8982546662        2.5490235508        2.7470673830
 C        -7.9693627961        3.9708559491        2.1441584468
 O        -7.6407354717        4.0911998221        1.0100387329
 C        -8.5121691026        5.1937507613        3.0439200894
 C        -9.7741731666        5.7777306661        2.1910338010
 O        -9.6286756246        6.2087578873        1.0685168850
 C       -11.2109373317        5.5055659325        2.6755402516
 C       -12.1348766292        6.3452393566        1.8381728686
 C       -12.0798653645        5.9319697272        0.2615851210
 O       -12.3257868164        4.7653141168       -0.0288254526
 C       -11.7652299136        7.0287368205       -0.8105222964
 C       -10.6724573506        6.2649091910       -1.7827494878
 O        -9.5745386079        6.7688522466       -1.9405846262
 C       -10.8832589382        4.8908093542       -2.4336844819
 C        -9.9760854274        4.7445850953       -3.7098936386
 C        -8.7083688998        4.0658287921       -3.3193290824
 O        -8.5791875379        3.8704865113       -2.1394039017
 C        -7.8108128487        3.4405051028       -4.3792114655
 C        -6.7989374110        4.6091340196       -4.8102169554
 O        -7.2969398054        5.4649954785       -5.4740712458
 C        -5.2756125461        4.6004683008       -4.3814915351
 C        -4.6925845680        5.9503273523       -4.0178900455
 C        -5.4521365809        6.4815206095       -2.7975600590
 O        -6.0674971849        5.6888381760       -2.1235496371
 C        -5.5836655392        7.9882365128       -2.4670812282
 C        -5.7485044006        8.3816335025       -0.9786695156
 O        -6.2537075085        7.7005331333       -0.1331186237
 C        -5.1141990296        9.7710605025       -0.5222734253
 C        -4.4066896367        8.8103467470       -3.1407715972
 C        -6.9433104036        8.6704136179       -2.9896345560
 C        -7.1230260760        2.1885865681       -3.8551538222
 C        -8.4816827043        3.0017599265       -5.7366666494
 C       -13.0742944357        7.3069391740       -1.6269763955
 C       -11.1474983666        8.3450255272       -0.2778742336
 C        -8.9916093689        4.9321697928        4.4924959765
 C        -7.5197479254        6.3641527134        3.1284133559
 C        -9.6180392098       -0.1598788961       -0.3547133006
 C       -11.7328176895        1.3255891208       -0.2254621052
 C       -15.1026398015       -3.3276501115        0.8570800434
 C       -15.5823854851       -1.0366360149        1.6500682696
 H       -15.9805021117       -4.6571422882        4.6350413896
 H       -14.4315081868       -4.9153780147        3.6699932227
 H       -16.0540158623       -4.8679598614        2.8606238481
 H       -12.4671562937       -1.2388271994        3.9180929143
 H       -13.9805794050       -0.4489026877        3.6366761966
 H       -12.0150277166        1.0248659309        3.2591329833
 H       -12.8949724528        0.7919583332        1.7702523447
 H        -7.6873515631        1.9256905844        0.7181301562
 H        -8.1003097511        0.5142860280        1.7753453120
 H        -6.8922500776        2.3384717842        2.9992767508
 H        -8.5404788559        2.4125689228        3.6483720459
 H       -11.3801789298        5.5414153436        3.7527354618
 H       -11.3759994534        4.4507335389        2.4811033028
 H       -11.8979090049        7.4505690345        1.8995846260
 H       -13.1376345670        6.1128124794        2.2201226116
 H       -11.9404338409        4.6450422607       -2.7156719951
 H       -10.4347536966        4.1804895710       -1.7344254817
 H        -9.7304150871        5.7044893930       -4.2159656770
 H       -10.5202933066        4.1172784889       -4.3942391348
 H        -4.6985529623        4.2398723362       -5.2922787651
 H        -5.1287640117        3.8623608472       -3.6748662421
 H        -4.7544501295        6.8197603368       -4.7154179739
 H        -3.6119947532        5.8022411131       -3.8327123977
 H        -4.0000117692        9.8156149308       -0.4781788856
 H        -5.3867773707        9.9452512331        0.4690247112
 H        -5.3947088855       10.7157492752       -1.0689623969
 H        -4.5976419687        9.8500257090       -3.0638721835
 H        -4.3230715459        8.5151655538       -4.1565965028
 H        -3.5191800334        8.4339496332       -2.7421592745
 H        -7.0434740876        9.6266204386       -2.4801351264
 H        -7.7382080606        7.9773998011       -2.7179368370
 H        -6.7877583961        8.8140295847       -4.0431843066
 H        -6.4789412208        2.3890376144       -2.9961228487
 H        -6.4423579457        1.7729851439       -4.5789211811
 H        -7.8002106087        1.3995967531       -3.5817757493
 H        -7.6116056166        2.7472307655       -6.3793018175
 H        -8.9302403974        3.9444637565       -6.0565161335
 H        -9.1599937863        2.1128136848       -5.6418442187
 H       -13.5736215314        6.4173565648       -1.9852654962
 H       -13.0133876116        7.9969957430       -2.4603493122
 H       -13.8289760288        7.7690351602       -0.9642484923
 H       -10.4343853153        8.0944761860        0.5728467311
 H       -11.9561494465        8.9321785520        0.2357157600
 H       -10.7490622211        9.0110829112       -1.0269605613
 H        -9.5038847175        5.8194541823        4.8784560613
 H        -8.0405257166        4.6874322978        5.0827162705
 H        -9.6518987071        4.1236551178        4.7594372652
 H        -8.1559356089        7.2014041892        3.3644271952
 H        -7.0548086501        6.6763032978        2.1436137033
 H        -6.6834689456        6.2612226254        3.8478617480
 H        -9.1881327980       -0.9545308241        0.1848456235
 H        -8.7890068855        0.4417848560       -0.8175210325
 H       -10.1219256348       -0.6677790879       -1.1950138786
 H       -11.3874978356        2.1485596230       -0.8176117713
 H       -12.2701432233        1.9219161403        0.4806850064
 H       -12.3016385873        0.6134438078       -0.7366562536
 H       -14.8569707322       -2.8079246173       -0.0490813964
 H       -16.1064066436       -3.6769465846        0.6322892696
 H       -14.4829125288       -4.2351936254        1.0310338462
 H       -16.6115972896       -1.2039798410        1.3716716075
 H       -15.0167519395       -0.5839530593        0.8690277998
 H       -15.6209923834       -0.3584167823        2.5478768093
 Na       -7.8272653357        5.7411781043       -0.6250353856
