117

 C       -15.0276057413       -4.2395246950        3.7727581088
 C       -15.4479709299       -2.8150877994        3.4879412387
 O       -16.0319058728       -2.1525807255        4.3766068537
 C       -14.9845367165       -2.2184474929        2.1126755090
 C       -13.4026009566       -1.9865763374        2.2602673414
 O       -12.6475012714       -2.6173867337        1.5449754845
 C       -12.8273403567       -0.9861235955        3.2621088155
 C       -12.3690039009        0.3300472201        2.5204534957
 C       -11.0263669311       -0.0502687427        1.7208618309
 O       -10.2564162419       -0.8545273053        2.1737164392
 C       -10.5655883146        0.7844250525        0.4399562180
 C        -9.7360986265        1.8910459290        1.1975643770
 O       -10.2125624399        2.9554169418        1.6017432429
 C        -8.3280098917        1.5575499035        1.7331580121
 C        -7.8602069737        2.6586790861        2.7120361153
 C        -8.0620813555        3.9986698618        2.1116844024
 O        -7.5648923477        4.2877531875        0.9919801993
 C        -8.5752972087        5.1880456032        2.9800910012
 C        -9.7578036302        5.8027761256        2.2090721333
 O        -9.5476776362        6.1971532933        1.0499348756
 C       -11.2027914055        5.7444279660        2.6890913330
 C       -12.2311290241        6.4529491364        1.7806319974
 C       -12.2145318485        5.8730848029        0.3866198341
 O       -12.6234027452        4.7810668960        0.1682980594
 C       -11.7608748292        6.8830202516       -0.9133411284
 C       -10.6823862605        6.1700407192       -1.7914160761
 O        -9.5857073835        6.6832334569       -1.9083151002
 C       -11.0562110885        4.9924299208       -2.6388094523
 C       -10.0232699785        4.5908548976       -3.7424400563
 C        -8.7465642532        3.8935337460       -3.4094941111
 O        -8.2904147422        3.9019792680       -2.2516460042
 C        -7.8023675424        3.3379791447       -4.5071502530
 C        -6.6999434362        4.5928568644       -4.7068804438
 O        -6.9657976142        5.6626723723       -5.2774547134
 C        -5.2896238383        4.4461754094       -4.1367691059
 C        -4.7508166376        5.8359884321       -3.8945616267
 C        -5.4276554277        6.4586958141       -2.6057464355
 O        -5.9528432330        5.7523850197       -1.7679455320
 C        -5.5596318648        7.9392416998       -2.5591538359
 C        -5.7199768849        8.3987811684       -0.9785328889
 O        -6.3152892380        7.6615636931       -0.2002685082
 C        -5.2246962639        9.6679148289       -0.4780512323
 C        -4.3169932259        8.6902959306       -3.0918915098
 C        -6.8131537650        8.4009570681       -3.3401475217
 C        -7.0990634327        2.0610987931       -3.8999134449
 C        -8.4900450681        3.0556630659       -5.8937381133
 C       -12.9974054800        7.0569815992       -1.8129229466
 C       -11.1537814071        8.2671107278       -0.4818160067
 C        -8.8845784494        4.6848673335        4.4687527550
 C        -7.4463425919        6.2048981946        2.9489204283
 C        -9.7551895661       -0.1359375969       -0.4829994726
 C       -11.6875033459        1.4194673592       -0.4178059517
 C       -15.3194683960       -3.2562174205        1.0165994439
 C       -15.8287022948       -0.9079430293        1.8659506206
 H       -15.5675831126       -4.5980148021        4.6118445606
 H       -14.0129370487       -4.2256166493        3.9959733034
 H       -15.1976055171       -4.9877805109        3.0012809877
 H       -11.9883856999       -1.4353778468        3.8282225319
 H       -13.5615811530       -0.6790951396        4.0582809491
 H       -12.1414284431        1.1185765386        3.2360439611
 H       -13.2179628632        0.6962536505        1.8217847251
 H        -7.7557240627        1.5120180769        0.7942428997
 H        -8.2917312467        0.5844951796        2.2182924349
 H        -6.7424481524        2.5761841497        2.8560239883
 H        -8.3043120705        2.4778311738        3.6520126809
 H       -11.3186122003        6.0230955281        3.7294880569
 H       -11.3587632169        4.6616173072        2.8080611701
 H       -12.0192916223        7.4907609816        1.6326634629
 H       -13.2312364588        6.3017733766        2.2397031441
 H       -11.7836764494        5.3953896870       -3.3199445480
 H       -11.5246065547        4.2083889587       -2.0139882959
 H        -9.7642143410        5.5368403612       -4.1721902377
 H       -10.6250134564        4.0285617098       -4.4770128916
 H        -4.6561330553        3.8076376520       -4.7184595806
 H        -5.5227062003        3.8251825059       -3.2222132082
 H        -4.8832728730        6.5344828674       -4.6845948680
 H        -3.6877290940        5.8628437305       -3.6469057323
 H        -4.1657115892        9.5988917851       -0.3124878732
 H        -5.5914589638        9.9815679103        0.5572655276
 H        -5.4379206276       10.4936926297       -1.0727072129
 H        -4.6225852354        9.7317725346       -3.1362113572
 H        -4.0573535509        8.3498355885       -4.0904314425
 H        -3.4277628764        8.4114416845       -2.4839212183
 H        -7.0605588504        9.3586031437       -2.9383101661
 H        -7.5553956139        7.7097379864       -3.0267801299
 H        -6.6427696086        8.4472366184       -4.3990169005
 H        -6.4646076865        2.2533407883       -3.0460752386
 H        -6.4168426236        1.5773362123       -4.6058814265
 H        -7.7948044659        1.3286626246       -3.4638247462
 H        -7.8094718310        2.4456363522       -6.4196550454
 H        -8.6809846277        3.9599452787       -6.4501918186
 H        -9.3460642064        2.4971983812       -5.6158914759
 H       -13.5371725766        6.0815724295       -1.9603835667
 H       -12.8193662060        7.5696493758       -2.7918561111
 H       -13.7293679872        7.7925018740       -1.4350552798
 H       -10.2541696804        8.1675441119        0.0889217870
 H       -11.8182803253        8.8444040007        0.1354512800
 H       -11.0830784289        8.8944601487       -1.4128721557
 H        -9.2233698039        5.5388783978        5.0232017297
 H        -8.2054717009        4.0385392578        4.9577774803
 H        -9.8359029269        4.1617029351        4.4995671875
 H        -7.7097252246        7.2295333225        3.2560788585
 H        -7.1152923005        6.3086013049        1.9681688872
 H        -6.6033891477        5.8102848391        3.4929572936
 H        -8.9854144673       -0.7232205956        0.1004320107
 H        -9.3448408070        0.3401923789       -1.3364422555
 H       -10.3434777714       -0.9737330242       -0.8701545583
 H       -11.3989583378        1.5673182960       -1.4721499793
 H       -11.8712814689        2.4502484659       -0.0883631363
 H       -12.5695588559        0.6941001262       -0.3083065122
 H       -15.3428147761       -2.8108261352        0.0153699215
 H       -16.3241446794       -3.6647218578        1.1642725813
 H       -14.5953111928       -4.0469606273        1.0158680195
 H       -16.9148211011       -1.1108760654        1.8916141284
 H       -15.5252550219       -0.5375592565        0.8586520794
 H       -15.6059779580       -0.1527976498        2.5663988196
 Na       -7.9657473111        5.8715760956       -0.6488508633
