117

 C       -14.4130254806       -3.9653819702        4.3855971123
 C       -15.1363999078       -2.6838975017        4.6070737595
 O       -15.2480997635       -2.2172983497        5.7060278357
 C       -15.5833762002       -2.0289559802        3.2348577792
 C       -14.3140555651       -1.3613785985        2.6154340744
 O       -14.0421045475       -1.4221359357        1.4607157481
 C       -13.3669069498       -0.5335873341        3.6336151716
 C       -12.5321570878        0.5844524915        2.9625704097
 C       -11.4997482079       -0.0462894352        1.9608845263
 O       -10.9662723538       -1.0618125108        2.3148763363
 C       -10.9999428509        0.7585322867        0.6717096601
 C       -10.1663502730        1.9047725685        1.2769525282
 O       -10.6333069860        3.0049272923        1.5077991129
 C        -8.7072609682        1.5268323504        1.4781346474
 C        -8.0531595550        2.6187270710        2.3614210873
 C        -8.2855893410        3.9728294116        1.6337863946
 O        -8.0887717771        4.0649396311        0.4641676348
 C        -8.7425328626        5.3388539427        2.5195949686
 C        -9.9004491075        5.9572133184        1.6854415431
 O        -9.6934073000        6.5328432906        0.6222154525
 C       -11.3620272083        5.9643805069        2.1106444639
 C       -12.1166376215        6.8526441447        1.1199959907
 C       -12.1180497529        6.0335538924       -0.2002073401
 O       -12.4452743728        4.8831626944       -0.1803038508
 C       -12.0171921171        6.6338328680       -1.6608077639
 C       -10.6814651288        6.1584031249       -2.1764101637
 O        -9.7775371696        6.8661612670       -2.5160362690
 C       -10.3937649412        4.5915619671       -2.2859910862
 C        -9.7107865636        4.2415855383       -3.6360506681
 C        -8.2439637444        4.0390517267       -3.4546572729
 O        -7.6582487259        4.3725738315       -2.4566160001
 C        -7.3110021391        3.3562429450       -4.5018841439
 C        -5.9334458936        4.0474616441       -4.5364896967
 O        -5.7815715047        4.9553192595       -5.3089896692
 C        -4.8452019110        3.8429231229       -3.4354315658
 C        -4.0919506683        5.1504634535       -3.2947143957
 C        -4.8683922071        6.0039047933       -2.2219041106
 O        -5.5474131496        5.5086905423       -1.3743191052
 C        -4.8870109205        7.6276266886       -2.5135609107
 C        -5.5166971085        8.4553136588       -1.3016862367
 O        -6.3919353870        8.0125116405       -0.6455444721
 C        -4.9567921698        9.7929722211       -1.0477470154
 C        -3.4487418578        8.0491816355       -2.9002778858
 C        -5.7931319877        7.8920270398       -3.7939233196
 C        -7.2918722567        1.9015478670       -4.0030537862
 C        -7.9068579004        3.5123907915       -5.9245421293
 C       -13.2049183623        6.0721433686       -2.4498106607
 C       -12.0254346481        8.2193292326       -1.7756531069
 C        -9.1029474043        5.0912334292        4.0357753280
 C        -7.4678305297        6.2624494929        2.6037056627
 C       -10.2231311379       -0.2278457643       -0.2233023797
 C       -12.1377345323        1.3391218750       -0.1520665124
 C       -16.1278517517       -3.1783824061        2.3901971236
 C       -16.6826354107       -0.9540421675        3.5913536260
 H       -15.0909241899       -4.7740187738        4.2431445557
 H       -13.7520653126       -4.2009198120        5.1838443977
 H       -13.8093967901       -3.8884447217        3.4667133028
 H       -12.6484567977       -1.2527042127        3.9534010586
 H       -13.8508381660       -0.0372728964        4.4381095463
 H       -11.9223601816        1.0453249137        3.7124546085
 H       -13.1947514620        1.4940874749        2.5393970175
 H        -8.2237997464        1.4159133742        0.4906074836
 H        -8.6698290580        0.5594185006        2.0058349056
 H        -7.0137763656        2.4270716634        2.3767445543
 H        -8.4933620365        2.6046773521        3.3725882494
 H       -11.5727426128        6.3320629343        3.1062119203
 H       -11.6430404005        4.9416156108        1.9219111951
 H       -11.6438707466        7.8400912791        0.9768842430
 H       -13.2177370049        6.8933071418        1.4954481402
 H       -11.3574830507        4.0203652262       -2.1412237679
 H        -9.6566191880        4.2763376652       -1.5245007166
 H        -9.9051851808        5.1105256929       -4.3226169953
 H       -10.1541949307        3.4009337651       -4.1622514634
 H        -4.1345757976        3.1174702931       -3.8480750158
 H        -5.3026123488        3.4648334341       -2.5186372222
 H        -3.9611823979        5.6425238375       -4.3062950621
 H        -3.0214850225        5.1111344252       -2.9113122053
 H        -4.0296540012        9.6303454065       -0.5999098915
 H        -5.5117700451       10.4627953932       -0.3072475556
 H        -4.6162807481       10.3234064107       -1.9257758319
 H        -3.2320232816        9.0775487704       -3.1953453819
 H        -3.1842465247        7.6350447101       -3.8938435859
 H        -2.6680663521        7.6548649892       -2.2689565762
 H        -5.7148336996        8.8520543437       -4.2703850330
 H        -6.8391992099        7.7129719377       -3.6182958357
 H        -5.5127568789        7.1744092356       -4.5731248449
 H        -6.8883184719        1.8607515313       -2.9739401267
 H        -6.6097574399        1.3279406454       -4.6535490152
 H        -8.2972115781        1.4582471690       -3.9275224859
 H        -7.3623387513        2.8303610624       -6.6181527744
 H        -7.6497755139        4.4312576683       -6.4444244262
 H        -8.9433117592        3.3056768312       -6.0079379387
 H       -13.4002770186        5.0580795271       -2.0818473880
 H       -13.0061720622        6.2265905472       -3.5157902910
 H       -14.0112772614        6.8056499024       -2.3611661207
 H       -11.3438679783        8.6670907476       -1.1514036728
 H       -13.0008416628        8.5583684160       -1.4731108706
 H       -11.8201433711        8.4334794718       -2.8084805854
 H        -9.6052214763        6.0146390722        4.3490719117
 H        -8.2263916580        4.9893351469        4.5947498580
 H        -9.8875671392        4.3080391858        4.1718521917
 H        -7.6643818861        6.9291884271        3.4257657155
 H        -7.2654671988        6.7967235513        1.6965879547
 H        -6.6305121384        5.6073353246        2.8092433891
 H        -9.2780131434       -0.5207977912        0.2391121492
 H       -10.2165694217        0.1598512582       -1.2821378175
 H       -10.7925837202       -1.0967852184       -0.2614851767
 H       -11.7835541663        1.8398625688       -1.0833546941
 H       -12.6708490006        2.0991488206        0.3272142574
 H       -12.8450110751        0.5467174385       -0.4407843493
 H       -16.5513921859       -2.7877116726        1.4625211138
 H       -16.8218063540       -3.6375767205        3.0729946311
 H       -15.3287389000       -3.8099163493        2.0815516449
 H       -17.5317682960       -1.2964419431        4.1572205935
 H       -17.0556798734       -0.5130927721        2.6763770830
 H       -16.2069178921       -0.0628708628        4.0826645580
 Na       -7.7967518343        6.2619460126       -0.8799063623
