117

 C       -14.1374169315       -3.7168623420        4.5318610229
 C       -15.3164920018       -2.7139134344        4.4846344938
 O       -16.1250012365       -2.4825531014        5.3510194153
 C       -15.4883125570       -2.0455537720        3.1260131987
 C       -14.1201878037       -1.5886541622        2.4746189655
 O       -13.8383294991       -1.9082098786        1.3477690070
 C       -13.1002149308       -0.9191422082        3.3714293215
 C       -12.5187594392        0.3272349703        2.6907859247
 C       -11.2585427601       -0.0880614334        1.8473028796
 O       -10.5054755372       -0.9317155236        2.2729318067
 C       -10.8505409271        0.8364386370        0.5521571975
 C        -9.8692107511        1.8841134576        1.1512881937
 O       -10.3451051625        2.9511457434        1.4790724692
 C        -8.4024496280        1.4707970203        1.3545147611
 C        -7.8227082182        2.5547617544        2.2513378136
 C        -7.9324527676        4.0294108168        1.6115814113
 O        -7.5987056471        4.1554405928        0.4791421219
 C        -8.6203074944        5.2831779454        2.4787658903
 C        -9.7747365280        5.9913912499        1.6077046683
 O        -9.5971064718        6.3791741811        0.4351824540
 C       -11.0834804447        6.3638087152        2.2858187216
 C       -12.0428789821        7.0658491088        1.3244703062
 C       -12.3994748731        6.0662633993        0.0307180109
 O       -12.9628466345        5.0060571258        0.1416796285
 C       -12.0979283210        6.6634950916       -1.3879269259
 C       -10.7402107790        6.1075424100       -1.9732426176
 O        -9.6987861846        6.7596492564       -2.0342021699
 C       -10.6794963974        4.6475590943       -2.4463686510
 C        -9.7752153032        4.1964559745       -3.6846272939
 C        -8.3543147110        3.8919635447       -3.4425019325
 O        -7.8302996989        4.0304058851       -2.3338217460
 C        -7.5039724939        3.3612979612       -4.6126646434
 C        -6.1110378236        4.1035439013       -4.6084539104
 O        -5.7188029827        4.6977492173       -5.6150728318
 C        -5.1611171253        3.9754940608       -3.3203608734
 C        -4.3193412871        5.2284246171       -3.0936992088
 C        -4.9906207291        6.1882284509       -2.0024655478
 O        -5.4423037423        5.7800170084       -0.9406607415
 C        -5.0471747353        7.7020066522       -2.4095352356
 C        -5.5871626681        8.4764656988       -1.1833188355
 O        -6.6506134836        8.2205052111       -0.6644527147
 C        -4.9800383571        9.7230647761       -0.7063362126
 C        -3.7029006275        8.1524651574       -2.9402905811
 C        -6.0295342218        7.8514815788       -3.5915145593
 C        -7.0807885840        1.9497094403       -4.2480813536
 C        -8.1621962769        3.4231114191       -5.9412393266
 C       -13.3392847040        6.2093371833       -2.2628428790
 C       -12.0915538705        8.2238177954       -1.3640372490
 C        -9.2125760821        4.9173675754        3.8570614402
 C        -7.5790114653        6.4248992558        2.7149552797
 C       -10.1021658547       -0.1250489432       -0.4050990675
 C       -12.0267914734        1.6256263770       -0.1534530170
 C       -16.2018481056       -2.9954153611        2.0402459180
 C       -16.4252678484       -0.8332766435        3.2935291038
 H       -14.5573703010       -4.7361775090        4.7352233207
 H       -13.3960744148       -3.5845110112        5.4033943741
 H       -13.5972516217       -3.6851111776        3.6050990647
 H       -12.2086441355       -1.5186700574        3.5072812834
 H       -13.4994992850       -0.6118607711        4.3268270796
 H       -12.1836347991        1.0745984066        3.3608631545
 H       -13.2956131770        0.8115931401        1.9778588385
 H        -7.8353993580        1.3880473090        0.3967769499
 H        -8.4662414645        0.4373720026        1.7769036564
 H        -6.7933405967        2.4175078864        2.3218243101
 H        -8.3158630297        2.5203712872        3.2332900633
 H       -10.7653033517        6.9886930314        3.1267684154
 H       -11.5070659457        5.4574233798        2.6772461857
 H       -11.6358831072        8.0076690745        0.8830779262
 H       -13.0686883026        7.2889558404        1.7864166609
 H       -11.7212858323        4.2254171603       -2.6392924129
 H       -10.4033982049        4.0571129400       -1.5552914654
 H        -9.8656136244        4.8358118443       -4.5838080419
 H       -10.2959311290        3.3111955597       -4.0104614241
 H        -4.4036511471        3.1579644942       -3.4724354960
 H        -5.6979682514        3.7707879589       -2.4297814784
 H        -4.0338461757        5.9353450328       -3.9048688792
 H        -3.3342099766        4.8538385515       -2.7394623797
 H        -3.9657118913        9.6514260034       -0.4766601302
 H        -5.4420515839       10.0836908564        0.2341594180
 H        -4.9324197920       10.4914575503       -1.4822664996
 H        -3.7153008884        9.2563649965       -3.0707682245
 H        -3.4193933484        7.7489984379       -3.9360868878
 H        -2.8167967351        7.9005802443       -2.4005894576
 H        -6.3035394856        8.9288094432       -3.6208701399
 H        -6.9539747042        7.2348001867       -3.4533195309
 H        -5.6398952154        7.5900893077       -4.6153649681
 H        -6.3367500387        1.8956357503       -3.4333637730
 H        -6.5675556419        1.4688251344       -5.0921225017
 H        -7.9629748966        1.3410080028       -4.0394896234
 H        -7.5003556514        3.0398945421       -6.8122490360
 H        -8.3927418151        4.4895966261       -6.1555973676
 H        -9.1423027938        2.9248377860       -5.9280776979
 H       -13.5063093254        5.1582391381       -2.2707316850
 H       -13.2377770098        6.6095253253       -3.2550531958
 H       -14.1302977198        6.7165850850       -1.7040927262
 H       -11.2206074600        8.4716428395       -0.8307157923
 H       -12.9974996470        8.6102893766       -0.8481119198
 H       -12.0704452555        8.6272402926       -2.3523968345
 H        -9.4847444564        5.8844381477        4.2627181793
 H        -8.4687807039        4.4432778701        4.4207301753
 H       -10.2139488982        4.3214455112        3.8447096674
 H        -8.0550603036        7.3218646694        3.0349445642
 H        -6.9215527105        6.5680352694        1.8382883290
 H        -6.9426758862        5.9693870454        3.4409102654
 H        -9.7307787224       -0.9982931592        0.1192717802
 H        -9.1955787711        0.3823078620       -0.8791693346
 H       -10.8244303250       -0.4134840141       -1.0739367543
 H       -11.8328298463        1.6784487919       -1.2177463240
 H       -12.0816945778        2.6466490454        0.1229578815
 H       -12.9505348879        1.1807401347       -0.0033481023
 H       -16.1114994323       -2.4942086799        1.0475044516
 H       -17.2586437050       -2.9114663406        2.3666817432
 H       -15.8512643472       -4.0547688165        2.0834837908
 H       -17.3361109945       -1.0882076810        3.7801829308
 H       -16.5862199134       -0.3812623459        2.3507109731
 H       -15.9638604649       -0.0810190551        3.9898447949
 Na       -7.8057540553        6.1096431140       -1.0966698553
