117

 C       -14.8454159954       -4.3394194839        4.8243098140
 C       -14.5743071073       -2.7772782479        4.7395057002
 O       -13.8139610482       -2.1773734898        5.4854945535
 C       -15.5059740513       -1.9914097835        3.7007071942
 C       -14.7770659474       -0.6766975930        3.1972710453
 O       -14.7954713980       -0.3937872042        1.9734058113
 C       -13.8871748956        0.2232676367        4.1214601201
 C       -12.9334999746        0.9485240014        3.2042102034
 C       -12.1004947471       -0.0197851443        2.3839424258
 O       -12.0061854149       -1.1772839067        2.7491787665
 C       -11.4109747803        0.5243336591        1.0349238453
 C       -10.5624846138        1.7604361970        1.4913744761
 O       -11.1443795206        2.8182755864        1.7392960949
 C        -9.0154084974        1.7466246641        1.5796849699
 C        -8.4692479659        2.8454209714        2.4880879683
 C        -8.4378387712        4.1996476075        1.7345624520
 O        -8.0189035082        4.2654279998        0.5755333791
 C        -8.8815850654        5.5112259186        2.5663221059
 C        -9.9851112156        6.1574951746        1.5736190614
 O        -9.6207933078        6.6315736793        0.5031107548
 C       -11.5204108066        6.0687931144        1.8989621615
 C       -12.3079223609        6.7544475644        0.7069590880
 C       -12.3874990621        5.9698571066       -0.5958168472
 O       -12.9035675229        4.8685279008       -0.5270768311
 C       -11.8482454933        6.4918752024       -2.0140417487
 C       -10.4606207672        5.8282204874       -2.2345003346
 O        -9.4661680567        6.4725308013       -2.0208011438
 C       -10.3443294887        4.2588503975       -2.7987131769
 C        -9.4807449345        4.2018843555       -4.0940743986
 C        -7.9596603256        4.1055496831       -3.7523715102
 O        -7.4775768002        4.3322817512       -2.6328922326
 C        -7.0530033911        3.3773070568       -4.8024917196
 C        -5.6323625448        3.9956319971       -4.8395343118
 O        -5.1748505598        4.5856605469       -5.7999494772
 C        -4.7029758086        3.8001136802       -3.5579004859
 C        -3.8281133536        5.1063769816       -3.2401542413
 C        -4.6443424979        6.0637002186       -2.3355665731
 O        -5.1996181003        5.6100765118       -1.3144426745
 C        -4.7306219622        7.5832023023       -2.8041546002
 C        -5.2656961964        8.3691291610       -1.4892132925
 O        -6.3656311777        8.0421210036       -1.0328687480
 C        -4.5905048331        9.5883852309       -0.9992598004
 C        -3.2382213599        8.1253119798       -3.1307583035
 C        -5.5836252104        7.9208213813       -3.9652463481
 C        -7.0963247192        1.9350337759       -4.2892375402
 C        -7.6758918425        3.4587452347       -6.2333041574
 C       -12.7514748626        6.2308284158       -3.2540815753
 C       -11.5438368499        7.9824595643       -1.9402991140
 C        -9.5441236828        5.2751505171        3.9209999801
 C        -7.6361651388        6.4355039686        2.7318738143
 C       -10.5121703268       -0.5576351347        0.3242053155
 C       -12.5194120277        1.0086126660        0.0894465333
 C       -15.9519568401       -2.9333029854        2.4834169532
 C       -16.7093850477       -1.5471781278        4.5880683724
 H       -15.7208680845       -4.6425715154        5.3872258383
 H       -13.9722859469       -4.8084834562        5.2461077229
 H       -14.9912516248       -4.7429015729        3.7833112687
 H       -13.3159751996       -0.4110199063        4.8568828156
 H       -14.5080315388        0.9369231591        4.7009408169
 H       -12.1394585177        1.5834348710        3.8363112369
 H       -13.4428095005        1.6643496146        2.6023330646
 H        -8.5656615929        1.9144315539        0.6057363590
 H        -8.7205757829        0.7846712896        1.9484522788
 H        -7.4113950153        2.6630807117        2.8600536928
 H        -8.9998535981        2.9904870317        3.4466292228
 H       -11.8166860405        6.7031465091        2.7761092465
 H       -11.7388644502        4.9932681976        1.8557822362
 H       -11.9869165011        7.7625280076        0.6209327363
 H       -13.3359675978        6.8450909712        1.0937966474
 H       -11.3051951188        3.7988842282       -2.9690145330
 H        -9.8054581432        3.6805296248       -2.0948057564
 H        -9.6494790243        5.0646260823       -4.7680919302
 H        -9.7831954407        3.3285833654       -4.6457877503
 H        -4.0833416430        2.9852022983       -3.8633491591
 H        -5.3117827109        3.3930619506       -2.6838777564
 H        -3.7137048714        5.5632285957       -4.2189905757
 H        -2.8731544226        4.9385051637       -2.7474067823
 H        -3.7090999214        9.3145407448       -0.3671654931
 H        -5.2179095415       10.2175904816       -0.4141149055
 H        -4.2007584092       10.2981557688       -1.7328886523
 H        -3.2367500339        9.2050089637       -3.1244167325
 H        -2.8717342771        7.7412032912       -4.0560918973
 H        -2.5044037121        7.8671193689       -2.3717739318
 H        -5.6296780314        9.0171739866       -4.0891969250
 H        -6.6404838467        7.6158597287       -3.9221111990
 H        -5.2223564929        7.5066036155       -4.9345606896
 H        -8.0449048233        1.8046225403       -3.8088927743
 H        -6.3348971394        1.8318278662       -3.5179012879
 H        -6.8757849325        1.2517806148       -5.1229974628
 H        -7.2705252231        2.6707740868       -6.8333572788
 H        -7.4548361402        4.4234426447       -6.7051038472
 H        -8.7437947072        3.3697471620       -6.4226538918
 H       -13.3152559820        5.3456555452       -3.0646724549
 H       -12.1240649282        6.0627810198       -4.1036270564
 H       -13.4386602410        7.0092448125       -3.2425297569
 H       -10.6738398420        8.2848500562       -1.3064875966
 H       -12.4307552274        8.5268027122       -1.6559201520
 H       -11.3568730001        8.4575802887       -2.9573571586
 H       -10.0560720297        6.2376657189        4.2391859408
 H        -8.8219962225        4.9827012473        4.7179286714
 H       -10.2138325709        4.5068221458        3.9133588062
 H        -7.8923973624        7.0938673645        3.6225263061
 H        -7.5935604876        7.1090500819        1.9066349580
 H        -6.7190972558        5.9071191469        3.0476453438
 H        -9.5540117720       -0.6917289769        0.8158216509
 H       -10.2911642067       -0.2384424252       -0.6738376434
 H       -11.1374484300       -1.4950999224        0.3121292605
 H       -12.1625496166        1.5886410457       -0.7574370907
 H       -13.2833066362        1.5929602165        0.6039408964
 H       -13.0956185384        0.1347484726       -0.2839555628
 H       -16.6211258242       -2.2927208034        1.8605311861
 H       -16.5928568153       -3.7614978140        2.8076130674
 H       -15.0515058526       -3.2732886858        1.9987962291
 H       -17.2003495857       -2.3280110934        5.1572394445
 H       -17.4656817227       -1.0355108628        3.9738127918
 H       -16.3849672677       -0.8466953289        5.3299755659
 Na       -7.5066343817        5.9221638805       -0.8224363438
