117

 C       -14.7054365511       -3.8709525243        3.6668478264
 C       -14.7527296654       -3.1413615649        4.9685366275
 O       -14.0732705028       -3.5308574908        5.9049188145
 C       -15.8281827440       -1.8762437215        5.1205278995
 C       -15.2207448322       -0.9069322139        4.0732796740
 O       -15.4101663824       -1.0570601081        2.9211043610
 C       -14.2105358253        0.2470332923        4.4865481725
 C       -13.6926942653        1.2133886858        3.4286798396
 C       -12.3132949576        0.8488235340        2.9192946142
 O       -11.4221754668        0.4167101187        3.6341918703
 C       -11.8962510289        1.2296647136        1.4169287724
 C       -10.8407646982        2.4076428062        1.6431466484
 O       -11.1136566511        3.5594015379        1.2913544009
 C        -9.4943837657        2.0221561334        2.2182686377
 C        -8.8092596995        3.2432975292        2.8602384360
 C        -8.7472146273        4.3673519124        1.8345995692
 O        -8.2329054581        4.0926049639        0.7696301415
 C        -9.1166031753        5.8643295576        2.1241260831
 C        -9.9502719823        6.2894981540        0.9197427946
 O        -9.4740306007        6.4746435774       -0.2221562920
 C       -11.4739840923        6.4442731876        1.0579713349
 C       -12.1692034409        6.9192822294       -0.1951187278
 C       -12.1708198401        5.9373030285       -1.4063651207
 O       -12.9535485915        5.0072947806       -1.4954503280
 C       -11.3482597616        6.4788158660       -2.7725244373
 C       -10.0874211263        5.6089151309       -2.9808164517
 O        -9.0023908336        6.1233755532       -2.8853530684
 C       -10.2008192170        4.0654112744       -3.3140895051
 C        -9.1463669167        3.6814676063       -4.3960547926
 C        -7.6843825295        3.5240242830       -3.9639431296
 O        -7.2041951085        3.6539649060       -2.8128802054
 C        -6.6571255049        3.1202294476       -5.1609525242
 C        -5.3520237877        4.0787804965       -4.9764461236
 O        -5.2559218319        4.9967720900       -5.7679442355
 C        -4.2385525575        3.7731785853       -3.9896264689
 C        -3.6325165540        5.1011843906       -3.4173451149
 C        -4.4658951783        5.7387792784       -2.3683110388
 O        -5.1147411376        5.0498355924       -1.5932189720
 C        -4.6723861971        7.3399196747       -2.3524775161
 C        -5.1793470847        7.7765436557       -0.9844935370
 O        -6.1116638946        7.1171287654       -0.4659481869
 C        -4.5303294188        8.9162941721       -0.2587560486
 C        -3.4391049791        8.0905969309       -2.8828255451
 C        -5.7923528245        7.6248783450       -3.4314398423
 C        -6.2875531723        1.6624102330       -4.7972050014
 C        -7.1734747078        3.3056457867       -6.5467936268
 C       -12.3100174006        6.2189784956       -3.9549879436
 C       -11.0069463307        7.9580025503       -2.7972278506
 C        -9.9050686796        5.9658166317        3.4225217327
 C        -7.7839939630        6.6698497355        2.3552491852
 C       -11.1513232635        0.0093999843        0.8136604917
 C       -13.0168495775        1.6232254347        0.4402805036
 C       -17.2099376747       -2.3142668523        4.6055682478
 C       -15.8255503772       -1.3700426737        6.6084184247
 H       -15.7126740130       -4.3600588243        3.4757089209
 H       -13.9445806653       -4.6847579835        3.6430643205
 H       -14.5257218967       -3.1466706180        2.8831674702
 H       -13.3246125745       -0.2167611042        4.9742319202
 H       -14.7396565423        0.7809949377        5.3005357910
 H       -13.6018957854        2.1539090718        3.9140639750
 H       -14.3243723788        1.2974476972        2.5843979983
 H        -8.9430124333        1.6285133613        1.3476633555
 H        -9.5536267514        1.1786205220        2.8783678368
 H        -7.7661587755        2.9918755944        3.1818728584
 H        -9.3533630422        3.5673868134        3.7376693772
 H       -11.5506437802        7.1260584156        1.9313009450
 H       -11.9479270801        5.5515260020        1.4441950793
 H       -11.5024329423        7.8021826920       -0.4061688926
 H       -13.2741704411        7.1264243144       -0.0877613514
 H       -11.2302335440        3.8154878296       -3.5401344742
 H        -9.9168389100        3.5551399419       -2.4239943822
 H        -9.0725759240        4.4787690236       -5.1523767502
 H        -9.4583931442        2.7721179649       -4.8937475350
 H        -3.4947610817        3.3362751964       -4.5973533077
 H        -4.4682235261        3.0670099283       -3.1263160182
 H        -3.4873339044        5.7488357629       -4.2805279917
 H        -2.5822991285        4.8405140849       -3.0692089042
 H        -3.4790744931        8.7796798059        0.0913560224
 H        -5.1665084746        9.2745731425        0.5494432117
 H        -4.3461888458        9.7528630706       -0.9066825819
 H        -3.6112230094        9.1455755584       -2.7584828813
 H        -3.3852324849        7.7130178437       -3.8616716345
 H        -2.5582509471        7.8176737809       -2.2930078973
 H        -5.8123272701        8.6261082969       -3.8836355091
 H        -6.8434189724        7.5359803269       -3.0979589519
 H        -5.7527846810        6.9346104475       -4.2723546472
 H        -6.0575071395        1.0906932213       -5.6891451008
 H        -7.2338780673        1.1718809363       -4.5183780328
 H        -5.5779346670        1.5748834983       -3.9429957712
 H        -6.5063939203        2.8009678871       -7.2405302782
 H        -7.2458531795        4.3799974796       -6.8122582885
 H        -8.1745868925        2.7521755470       -6.6562936413
 H       -12.7140498214        5.2135164268       -3.8742240593
 H       -11.7773250885        6.2882258704       -4.9024081924
 H       -13.1844032310        6.8168120196       -4.0004160342
 H       -10.3368085201        8.3753367586       -2.0421207871
 H       -11.9272608249        8.4775337671       -2.9281579806
 H       -10.5560908129        8.1517572410       -3.7610075567
 H       -10.3664626955        6.9228823053        3.5339332348
 H        -9.2726215973        5.7673629807        4.2663169519
 H       -10.6969225992        5.1948669164        3.5996268712
 H        -7.8324074832        7.6703144219        2.7536308289
 H        -7.2635382846        6.6566591252        1.4037524391
 H        -7.1566673535        6.1671646094        3.0623784689
 H       -10.5607409799       -0.5343702132        1.5752228283
 H       -10.4949177786        0.2311642234       -0.0028491597
 H       -11.9043985143       -0.7497600653        0.4211128532
 H       -13.0135798963        0.9884918226       -0.3770117118
 H       -12.8701166097        2.6734979694        0.1566574230
 H       -13.9489872669        1.6126563947        0.9140808500
 H       -17.8893722775       -1.4701667157        4.7983091108
 H       -17.6371213312       -3.1589917736        5.1432697398
 H       -17.1108838196       -2.6237466787        3.5633054562
 H       -16.3670453879       -2.0168462270        7.3046362057
 H       -16.2741109421       -0.3554423957        6.5976452909
 H       -14.8545979460       -1.3133895905        7.0054024595
 Na       -7.5924473110        5.4985473406       -1.1599146337
