117

 C       -14.7774618435       -3.9542462529        3.6471745352
 C       -14.7953344712       -3.0893974906        4.9707169259
 O       -14.0045864071       -3.2565179246        5.8578793331
 C       -15.7488668205       -1.8894448405        4.9626382589
 C       -15.1589250993       -0.8842831499        4.0046279383
 O       -15.4159241794       -1.0768976769        2.7875171131
 C       -14.1914992790        0.2444993985        4.5884002389
 C       -13.6239172706        1.1273390154        3.4714977376
 C       -12.1921615538        0.7949326167        2.9325915882
 O       -11.3792376490        0.3562850534        3.6891582325
 C       -11.8042115276        1.1555674955        1.3815180520
 C       -10.7480164025        2.2929926085        1.5807990182
 O       -11.0692694683        3.4504217710        1.4067835213
 C        -9.5127339072        1.9120608169        2.3087029616
 C        -8.8003206780        3.1897084745        2.8616721082
 C        -8.7135092378        4.2830581577        1.7463966372
 O        -8.3720573482        3.9940471539        0.6313255662
 C        -9.0841435475        5.7515513806        2.1817635679
 C        -9.9828423629        6.2895010368        0.9474492467
 O        -9.4951703161        6.4401683392       -0.1587157276
 C       -11.4707217688        6.4962845103        1.0678718803
 C       -12.1543603960        6.9675832677       -0.1881173754
 C       -12.1811398667        6.1139526917       -1.4724927195
 O       -12.8661365952        5.1081599624       -1.5089518183
 C       -11.4360870608        6.4716615894       -2.7850480130
 C       -10.0998360580        5.6455363055       -2.8923918321
 O        -9.0159386983        6.1424435617       -2.7633837958
 C       -10.1952495298        4.1132640346       -3.2420996834
 C        -9.0917293848        3.7360341821       -4.2833706438
 C        -7.6028495087        3.6727857439       -3.9447599484
 O        -7.1535303497        3.8577289101       -2.8646791566
 C        -6.6729205037        3.1122216940       -5.1219885661
 C        -5.2830359314        4.0908205378       -4.9835350596
 O        -5.3028980007        5.0935989109       -5.6496878952
 C        -4.2860150639        3.8249985128       -3.9245162959
 C        -3.6371393009        5.0930370997       -3.4307973116
 C        -4.5953899608        5.6877685319       -2.3941285503
 O        -5.0971670333        5.0190795336       -1.5236991014
 C        -4.7517653037        7.2600059713       -2.4154452004
 C        -5.2725189532        7.8296766531       -0.9872988678
 O        -6.1531757951        7.3048345829       -0.4066253283
 C        -4.5541799954        8.9663273939       -0.4023724443
 C        -3.4136593218        8.0204058550       -2.9355365959
 C        -5.8641763377        7.5203006552       -3.4433123951
 C        -6.2733967567        1.6390113114       -4.8430591510
 C        -7.2223751511        3.2795760887       -6.5095531250
 C       -12.4504598881        6.1632548901       -3.9018294999
 C       -11.0827761509        7.9871432738       -2.7037347512
 C        -9.8674620573        5.9301904888        3.5710567831
 C        -7.8353527132        6.6417687784        2.2165591087
 C       -11.0853922897       -0.0098486408        0.6616403747
 C       -12.9415160310        1.7008753215        0.4471691023
 C       -17.1396015715       -2.3664938206        4.4865949494
 C       -15.8957491858       -1.3439296217        6.4318370523
 H       -15.6651891520       -4.6322548028        3.6198721399
 H       -13.8627553935       -4.6690924451        3.6568487313
 H       -14.7514677048       -3.3655955195        2.7256771526
 H       -13.4472551550       -0.2499741424        5.2749416132
 H       -14.8660682887        0.8591881265        5.2553180441
 H       -13.5022172975        2.1168772835        3.9879056278
 H       -14.3122827095        1.2225265254        2.7389607083
 H        -8.9304235515        1.3015972761        1.6246125763
 H        -9.7224500640        1.2071624014        3.1065045813
 H        -7.7988484534        2.8877610791        3.2107239053
 H        -9.3812715155        3.5917769614        3.7677443869
 H       -11.5910706961        7.1651288824        1.9490438956
 H       -12.0458434335        5.5741679242        1.3849855706
 H       -11.7854668750        7.9521278767       -0.3187052128
 H       -13.2392100677        6.9218327363        0.0443415223
 H       -11.2084435837        3.9143391647       -3.6494868175
 H       -10.0960568407        3.5092743022       -2.3793156359
 H        -9.3056025888        4.2375764358       -5.2167587184
 H        -9.2792184280        2.6547262821       -4.4252126458
 H        -3.4846418774        3.1166566176       -4.2685379770
 H        -4.7610873807        3.4045086153       -3.0789087373
 H        -3.6131814876        5.7730923039       -4.2535224365
 H        -2.6264610196        4.8332843678       -3.2090419144
 H        -3.4817289706        8.7463380366       -0.1741162721
 H        -5.0575764776        9.2426596328        0.4649052788
 H        -4.3395087369        9.8324442583       -1.0727258972
 H        -3.6059181942        9.0619600912       -2.7555185433
 H        -3.2387618221        7.6435172504       -3.9266981491
 H        -2.6006733331        7.7965329827       -2.2610993931
 H        -6.0177500839        8.5681512334       -3.6145000410
 H        -6.8623716763        7.2207462201       -3.1991117505
 H        -5.6782122716        7.0764819578       -4.4230893073
 H        -6.2966575209        1.0844100312       -5.7818270743
 H        -7.1086260911        1.1611929285       -4.3029129677
 H        -5.3721267149        1.5344387150       -4.2245561931
 H        -6.7663580625        2.5177539248       -7.1637767274
 H        -6.9794157332        4.2992252120       -6.9092020188
 H        -8.2771577769        3.0376964126       -6.5696858164
 H       -12.9900372737        5.2068458586       -3.7847175323
 H       -11.9331623700        6.2252780285       -4.8822387240
 H       -13.2600841715        6.9043515004       -3.9930003714
 H       -10.1936850162        8.1438329530       -2.1214728612
 H       -11.8926362672        8.5500030298       -2.3912981153
 H       -10.8695163027        8.3761471923       -3.6953823866
 H       -10.5288340225        6.8740811990        3.6513993926
 H        -9.3163378083        5.8078818660        4.5242608998
 H       -10.5454626664        5.1420029392        3.6309095438
 H        -8.0724975524        7.7012870001        2.2119826125
 H        -7.2024159165        6.3772412378        1.4331540901
 H        -7.2917545149        6.5840063748        3.1563923710
 H       -10.2890110256       -0.4049605595        1.2737732776
 H       -10.7525005705        0.2494521100       -0.3541190455
 H       -11.7696486061       -0.8825535880        0.4744633089
 H       -12.9994252670        1.1071032439       -0.4085173155
 H       -12.8063521744        2.7409451272        0.2642839779
 H       -13.8769217272        1.6575925060        0.9497508708
 H       -17.8032052110       -1.5045518296        4.5346599523
 H       -17.5558388816       -3.0601412015        5.1909122664
 H       -17.0877130681       -2.8461642420        3.5490586906
 H       -16.1757415330       -2.1952783432        7.0442687954
 H       -16.6603371128       -0.5829439850        6.4908731615
 H       -14.9618121253       -0.9820807192        6.9157503326
 Na       -7.5233940384        5.4101378891       -1.1461892539
