117

 C       -14.7353243271       -3.6987067570        3.6964739585
 C       -14.9581402987       -3.2480841552        5.1416403830
 O       -14.7831953725       -4.0833823098        6.0136857171
 C       -15.5846363716       -1.8262003832        5.5127897195
 C       -15.3082689544       -0.8194703927        4.3872168204
 O       -15.5501357611       -1.1807682586        3.1860516120
 C       -14.4523627734        0.4829905334        4.6849662077
 C       -14.0666733462        1.1540082041        3.3466468440
 C       -12.5561652092        0.9875550126        3.0973506295
 O       -11.7466939289        0.6797697702        3.9376173449
 C       -12.1060917964        1.2819661934        1.5921446265
 C       -11.1423248769        2.4490303119        1.7061038416
 O       -11.3906443613        3.6000835920        1.3846232363
 C        -9.6746028816        2.1806631123        2.0718434575
 C        -8.9254724076        3.3578695244        2.7134306575
 C        -8.7470008947        4.5420276858        1.7490226399
 O        -7.9383207978        4.3501671290        0.8268524295
 C        -9.3792296918        5.9883475935        2.0165261172
 C       -10.0945557533        6.3783367555        0.6487442313
 O        -9.5051007046        6.3097165805       -0.4243531114
 C       -11.5842846402        6.6215076342        0.6506807041
 C       -12.0436060333        7.1862412400       -0.7049579180
 C       -11.6864230486        6.1363785881       -1.7269334491
 O       -11.6103548717        4.9590148775       -1.4477365563
 C       -11.1993580028        6.4615114116       -3.2051797537
 C        -9.8613007280        5.6732694296       -3.2771524466
 O        -8.7876455883        6.2479287628       -3.0261187883
 C        -9.9798361686        4.0310532961       -3.4494901228
 C        -9.0276796419        3.5006728810       -4.4899258840
 C        -7.5903963538        3.2178684637       -4.0632272474
 O        -7.1572581382        3.4441075481       -2.9714244728
 C        -6.5872226701        2.7965179072       -5.1877679175
 C        -5.4931059580        3.9765686967       -5.0099542309
 O        -5.7403582334        4.9984726897       -5.6440554160
 C        -4.3568622022        3.7950584196       -4.1027036331
 C        -3.7592426296        5.1496777570       -3.5959967749
 C        -4.6211540613        5.7589782047       -2.5731560259
 O        -5.2563565750        5.0787059259       -1.7131720646
 C        -4.5544447756        7.3185080267       -2.2954030734
 C        -5.0293389118        7.6318804722       -0.8628279493
 O        -6.1634794108        7.4371624894       -0.4767216117
 C        -4.1713254750        8.3076104990        0.0746212729
 C        -3.0816937485        7.8007862169       -2.5835541852
 C        -5.5132240824        7.9969091068       -3.2842065382
 C        -6.0835517136        1.3489498454       -4.8423426260
 C        -7.1636496170        2.7339243463       -6.6560783498
 C       -12.2777162426        6.0006109354       -4.1568782560
 C       -10.7639112576        7.9645763021       -3.3252803769
 C       -10.2974212231        5.9925495028        3.2501037039
 C        -8.1688644346        7.0180884591        2.2630104991
 C       -11.5128569424        0.0182331937        0.9897382082
 C       -13.2044349284        1.7810283111        0.6181173625
 C       -17.0973722048       -2.0870532684        5.6504491175
 C       -14.9347483524       -1.3753695114        6.8970216691
 H       -15.5242344278       -3.4052878527        3.0428357553
 H       -14.6518436329       -4.8223585681        3.6974104776
 H       -13.8654371115       -3.2509888559        3.2891694073
 H       -13.5889517652        0.1323266189        5.2228302102
 H       -15.0979820138        1.1504169062        5.2410148938
 H       -14.3107513808        2.3320622654        3.4385924767
 H       -14.6412493275        0.7071576139        2.5284525512
 H        -9.2306806963        1.8007300682        1.1520694433
 H        -9.5967194774        1.3717992310        2.8329352385
 H        -7.9908488014        3.0297860843        3.0429834771
 H        -9.4621216727        3.5939050531        3.6485169204
 H       -11.9428540088        7.1501069705        1.4848151784
 H       -12.1620351834        5.7091343908        0.8577955416
 H       -11.5277306312        8.1027858450       -0.9280266323
 H       -13.1410393874        7.3045706197       -0.4910237930
 H       -11.0301265265        3.7320893029       -3.5974763489
 H        -9.5566274516        3.6244528064       -2.5199927988
 H        -8.9555898968        4.0564043684       -5.4168812726
 H        -9.4301672163        2.5238976690       -4.8163412105
 H        -3.5564545429        3.3117242547       -4.7771211088
 H        -4.4483511999        3.1484679722       -3.2984360630
 H        -3.5774071455        5.8879555085       -4.4445536439
 H        -2.7517824829        4.8850862661       -3.1858441257
 H        -3.2954856524        7.6420746781        0.2398257078
 H        -4.6190422817        8.4753094381        0.9881202771
 H        -3.8045661604        9.3446917559       -0.1486670421
 H        -3.0119151366        8.8297024775       -2.3289216890
 H        -2.8448527626        7.8128527963       -3.6306289157
 H        -2.4614580308        7.1176418779       -2.0654630752
 H        -5.3710938217        9.0796999891       -3.4008021349
 H        -6.5878621576        7.8389745265       -3.1363440427
 H        -5.3859595607        7.6379520234       -4.3366213916
 H        -5.1080478030        1.1441690018       -5.3423871074
 H        -6.8304997062        0.5866200685       -5.1578172212
 H        -5.8811842097        1.1958369742       -3.7699194147
 H        -6.4091645260        2.2682900890       -7.3226185086
 H        -7.4996978615        3.7373133868       -7.0308301588
 H        -8.0537454111        2.1651380041       -6.5040634195
 H       -12.5969360547        5.0038741529       -3.9964276929
 H       -12.0055885626        5.9029146198       -5.1826416349
 H       -13.0788208097        6.7012424245       -4.0421279585
 H       -10.0007812961        8.2137652904       -2.5575866712
 H       -11.6167904202        8.6163505545       -3.2251790709
 H       -10.2434781713        8.0556198426       -4.3146121207
 H       -10.7083171971        7.0044483854        3.5403574917
 H        -9.8480507005        5.5838206026        4.1536427843
 H       -11.0936613005        5.3844468404        2.9807814265
 H        -8.4544715643        8.0316626727        2.0048339721
 H        -7.2981902048        6.8898529485        1.6988639015
 H        -7.8842248737        6.8973800424        3.3151836025
 H       -10.6670585373       -0.3686533128        1.5040632633
 H       -11.0679942156        0.1367819981        0.0029145377
 H       -12.3014148959       -0.7485029965        1.0681120098
 H       -12.8317655686        2.1428714209       -0.3191563628
 H       -13.6459115693        2.6850678993        1.0683446665
 H       -13.9172643519        0.9727572414        0.4532317350
 H       -17.7144429846       -1.1574555905        5.7125641274
 H       -17.2125569672       -2.7468598730        6.5278262582
 H       -17.4742410127       -2.5948170168        4.7638395680
 H       -15.0761058964       -2.2289206357        7.5460909242
 H       -15.3956161789       -0.5330969957        7.3572905295
 H       -13.8428088437       -1.1529819832        6.7681138308
 Na       -7.5736376256        5.5487296380       -1.1196623961
