117

 C       -15.4637181017       -3.8355481358        4.3015211735
 C       -15.1304678734       -3.4481042577        5.7948099984
 O       -15.1239844718       -4.2795788338        6.6679919962
 C       -15.3274205603       -1.9068790746        6.1860164769
 C       -15.2881279319       -0.9536630969        4.9351016700
 O       -16.0627049841       -1.1164647336        4.0771384724
 C       -14.3057019667        0.3064016969        4.9419611130
 C       -14.2186936757        1.0580041596        3.6496743622
 C       -12.8135223435        1.1395312768        3.1103570242
 O       -11.8867274830        0.7588501697        3.7612607687
 C       -12.5123651953        1.6750442160        1.6469731925
 C       -11.5011331855        2.7785084067        1.8549141376
 O       -11.7986078559        3.9179459127        1.4565580771
 C       -10.0826386350        2.3816779241        2.4107700066
 C        -9.2590402203        3.6585883321        2.8309264072
 C        -9.1736412531        4.5293874582        1.6014386639
 O        -8.7585392082        4.0790222028        0.5493881338
 C        -9.4959766708        6.1644425004        1.8020519069
 C        -9.9295964061        6.5489838338        0.3904035942
 O        -9.0363930290        6.8819406894       -0.3778116289
 C       -11.4115928954        6.5852484903       -0.1166165149
 C       -11.8912402245        7.3576983649       -1.3847454649
 C       -11.9482327766        6.4596838586       -2.6112615999
 O       -12.7258707446        5.5238936211       -2.6038975801
 C       -10.8817610730        6.6117959705       -3.7596758686
 C        -9.5651655158        5.7637983992       -3.4880183211
 O        -8.5797659110        6.3881969850       -3.2114420397
 C        -9.6274017463        4.2600381255       -3.5504335140
 C        -8.6586182520        3.6353270415       -4.5415904714
 C        -7.3951387639        3.0399246233       -3.8901500130
 O        -7.2921336597        3.2149350921       -2.6779048149
 C        -6.3280312433        2.4256692390       -4.8648825712
 C        -5.3272555172        3.6818349138       -5.0180607465
 O        -5.6137818514        4.6181428410       -5.7178708990
 C        -4.0077184229        3.6098065261       -4.1696002808
 C        -3.6063551458        5.0032854413       -3.7149827023
 C        -4.5428127325        5.6324515529       -2.7233354161
 O        -5.3579838262        4.8708443256       -2.2562157753
 C        -4.4467285526        7.1655257099       -2.3961367329
 C        -4.6497156453        7.3115861028       -0.8195933923
 O        -5.6631079654        6.8590528383       -0.3093078730
 C        -3.5684104390        8.1412845627       -0.1170224978
 C        -3.0711573051        7.7397664783       -2.8376251437
 C        -5.6164518239        7.8651509802       -3.1223027055
 C        -5.7027615353        1.3359663111       -3.9780362487
 C        -6.7816737466        1.8763124465       -6.2198390149
 C       -11.6542874242        6.0548904282       -5.0638697168
 C       -10.5033424810        8.0659304628       -3.9861133059
 C       -10.4605912188        6.4837102871        2.9315487872
 C        -8.0982694980        6.8294339581        2.1519737040
 C       -12.0145571132        0.4299274325        0.8854434998
 C       -13.7106420815        2.1779864426        0.8134356778
 C       -16.8205824708       -1.9495509373        6.7092870630
 C       -14.4242176225       -1.4555875862        7.3163979668
 H       -16.5269233004       -3.6155884417        4.1531655413
 H       -15.3754090773       -4.8552498567        4.1593734798
 H       -14.8992394606       -3.2903663108        3.5695854866
 H       -13.2677119360        0.0466024553        5.2054361308
 H       -14.5312065876        1.0184537139        5.7518110658
 H       -14.6457636801        2.0914237749        3.7467914962
 H       -14.7823710116        0.6876004450        2.8547141827
 H        -9.4580839197        1.8172331619        1.7015049048
 H       -10.1191048564        1.7877887936        3.3158931965
 H        -8.2806741501        3.2122277775        3.1857278379
 H        -9.6924867638        4.1721919563        3.7227028391
 H       -11.9343706062        7.0816012571        0.7176874697
 H       -11.7518644765        5.5146485998       -0.1850355726
 H       -11.1811359145        8.2239519803       -1.4743751993
 H       -12.8872886209        7.8052517020       -1.2160806784
 H       -10.6820901437        3.9472555451       -3.7935432806
 H        -9.5014945237        3.9253200727       -2.5269596998
 H        -8.2728093443        4.4063309008       -5.2308438272
 H        -9.1835401793        2.8612650167       -5.1394451246
 H        -3.1322631588        3.1435810771       -4.6742780992
 H        -4.1523174927        3.0170444649       -3.2816283478
 H        -3.4378823353        5.6044744160       -4.5557664391
 H        -2.6975086131        4.9190565423       -3.1400540232
 H        -2.5352181498        7.8322838962       -0.2021660587
 H        -3.7637902336        8.0832998627        1.0072127406
 H        -3.5326154935        9.1186069613       -0.4510829150
 H        -3.0672349218        8.8435509759       -2.7366457681
 H        -2.9923561848        7.7103376875       -3.9307815684
 H        -2.1414142235        7.2925105803       -2.4004761736
 H        -5.7013204326        8.9109336049       -2.7554463820
 H        -6.6062351414        7.3965259173       -2.9689351990
 H        -5.5359299103        7.9249303780       -4.2165633243
 H        -6.2956424360        0.4274381147       -3.9266188706
 H        -5.5178394708        1.5940352476       -2.9303871777
 H        -4.6979588362        1.1544695542       -4.4042919586
 H        -6.0135155057        1.1664561009       -6.4439468175
 H        -6.7532019263        2.6204398426       -7.0167871676
 H        -7.7574706488        1.3200147074       -6.1443809611
 H       -12.1698294942        5.1015265821       -4.8334250267
 H       -10.9410528834        5.7747577544       -5.8553423652
 H       -12.4348050540        6.7515461019       -5.3967762065
 H        -9.7564222028        8.3073223070       -3.2148445710
 H       -11.3839435539        8.6898923332       -4.1122835559
 H        -9.9914486584        8.0897369899       -4.9717882054
 H       -10.6002762404        7.5690032250        2.8685232620
 H        -9.9232901832        6.2930474522        3.8209056233
 H       -11.4529938267        5.9079896278        2.9365586115
 H        -8.1622476774        7.9067326891        2.3525149636
 H        -7.4494913626        6.6581989944        1.2440575683
 H        -7.5711167795        6.3673555858        2.9794249374
 H       -11.0445002953        0.0241956813        1.2563900529
 H       -11.8594968524        0.5209515252       -0.1493164039
 H       -12.7503371148       -0.3976134448        1.1028404566
 H       -13.4048247166        2.7957483101       -0.0649108969
 H       -14.4492652149        2.8515591774        1.3366326745
 H       -14.3349842897        1.3083990270        0.4892840238
 H       -17.2148966803       -0.9044530655        6.9116856256
 H       -16.8480773576       -2.4990162455        7.6523614347
 H       -17.5319655989       -2.4954367041        6.0604218718
 H       -14.5359290293       -2.0158559340        8.2494229329
 H       -14.6583113652       -0.3915214369        7.4782052545
 H       -13.4020025448       -1.5235604082        7.0033964381
 Na       -7.3840202910        5.4088780659       -1.3082402301
