117

 C       -15.9588130946       -4.0720049350        5.0674226799
 C       -15.3074070288       -3.4166298242        6.2287072422
 O       -14.3090405241       -3.8530132251        6.7800728204
 C       -15.7233074548       -1.8730892676        6.6561194230
 C       -15.4323478526       -1.0312982473        5.3457575726
 O       -16.3229081836       -0.9191947485        4.5116328178
 C       -14.1415601636       -0.2402838497        5.2247160762
 C       -14.1521131675        0.8280808788        4.0300159429
 C       -12.8354607189        0.8167243003        3.1376962404
 O       -11.8418325939        0.2899998747        3.5461541486
 C       -12.7614138469        1.4718154943        1.6203114241
 C       -11.7622373725        2.7233701268        1.4059909229
 O       -12.0988915959        3.7997980515        0.9390087745
 C       -10.2489921266        2.3658048192        1.7831307521
 C        -9.6139557027        3.6492466409        2.4895017581
 C        -9.3133100085        4.7880520946        1.3641568188
 O        -8.4656713271        4.5884487174        0.5607042342
 C        -9.7805463133        6.3070708693        1.5178273169
 C        -9.9990499860        6.8748384473        0.0569788002
 O        -9.0964347805        6.8458456716       -0.7967520787
 C       -11.4302330883        7.4306368384       -0.2477322778
 C       -11.3411533722        8.0723574661       -1.7076934077
 C       -11.4184480478        6.8022519896       -2.6391728639
 O       -12.0875607987        5.8283668787       -2.3792553474
 C       -10.5418456851        6.7663485583       -3.9803156937
 C        -9.3811790923        5.8048615481       -3.6282194543
 O        -8.2675555548        6.2702279661       -3.3868270856
 C        -9.6069967177        4.3242058403       -3.6231563417
 C        -8.6490751247        3.4797527733       -4.4261243302
 C        -7.4888785287        3.0907560865       -3.5122829172
 O        -7.6014792937        3.0896420394       -2.2704379415
 C        -6.2713198413        2.2430713662       -4.1967274183
 C        -5.2551670807        3.3718816133       -4.8091069811
 O        -5.6592414709        4.2619392358       -5.5039419205
 C        -3.8100694294        3.3884443250       -4.3553873513
 C        -3.4107549171        4.8310927918       -3.8997568071
 C        -4.5099242324        5.4991347139       -2.9794592141
 O        -5.4611623486        4.9105708560       -2.5391653124
 C        -4.3552444310        7.0595375814       -2.7393933711
 C        -4.5089630489        7.2668952695       -1.2054969499
 O        -5.5620474047        7.0176689634       -0.6575220144
 C        -3.3549618120        7.8525272212       -0.3695388859
 C        -2.9822484146        7.5924993381       -3.2165008129
 C        -5.4189340044        7.8681832747       -3.4573837774
 C        -5.6361214858        1.3007791371       -3.1274420756
 C        -6.6952325854        1.4018344670       -5.4970956950
 C       -11.4367292639        6.3045670100       -5.1819303480
 C        -9.9968514592        8.1436268926       -4.3076465376
 C       -10.9680258576        6.5079647632        2.4718122329
 C        -8.4986140976        6.9540268905        2.0858029971
 C       -12.3364425381        0.2920076135        0.7313970615
 C       -14.1923901006        1.9621746938        1.2625178241
 C       -17.1689685114       -1.6257131963        7.0160372479
 C       -14.8650641578       -1.5442224491        7.8535065869
 H       -17.0131931717       -4.0485792755        5.1522145895
 H       -15.6418195582       -5.1519927539        5.0354041602
 H       -15.6935314045       -3.4688991359        4.1325841880
 H       -13.2294706348       -0.8393106586        5.1023323996
 H       -13.9826686792        0.2973921838        6.1457050546
 H       -14.2660917292        1.7994800429        4.4693390251
 H       -14.9754088818        0.6266224446        3.3864160765
 H        -9.6113076621        2.0902407188        0.9013797551
 H       -10.1335226063        1.5265722652        2.4607187959
 H        -8.6160620681        3.3379675927        2.8867472493
 H       -10.2394372628        3.9414940635        3.3000196002
 H       -11.7411962258        8.2078308732        0.4617974424
 H       -12.0352828872        6.5118676951       -0.3316182777
 H       -10.4334055670        8.6204698058       -1.8236427461
 H       -12.2013856353        8.6038910171       -1.9163323555
 H       -10.6596871371        4.0892012967       -3.9190557311
 H        -9.4860492727        4.0240973627       -2.5860158359
 H        -8.1423245869        4.0529480174       -5.2150297851
 H        -9.0441994921        2.5529191308       -4.8642819095
 H        -3.1197399415        3.1645738353       -5.1524048833
 H        -3.6121310607        2.6768755958       -3.4895420364
 H        -3.1095346795        5.5132331520       -4.6809565198
 H        -2.4869087777        4.7364785640       -3.2169597457
 H        -2.3324911696        7.4842881779       -0.5971861770
 H        -3.6408050398        7.7624842209        0.6354053032
 H        -3.2729539860        8.9693861734       -0.4401249230
 H        -2.8106077008        8.5553558750       -2.7661120958
 H        -3.0762911484        7.7503643379       -4.2712708945
 H        -2.0240378459        7.0959924916       -3.1648482796
 H        -5.3266447993        8.9233679186       -3.2162367745
 H        -6.4003396030        7.5772862378       -3.1126765114
 H        -5.3943409416        7.7433134510       -4.5184535473
 H        -6.0513878461        0.3008404942       -3.2318018099
 H        -5.6937666994        1.7518936779       -2.1157681616
 H        -4.6195321376        1.0845591489       -3.4339758811
 H        -5.7928024688        1.0785569356       -5.9925592146
 H        -7.3289772566        1.9238219006       -6.1747275302
 H        -7.2244126948        0.4633979575       -5.2178016319
 H       -12.1346062979        5.6534651008       -4.6650578305
 H       -10.8717657399        5.7193663280       -5.9347766632
 H       -11.9232372166        7.1449199047       -5.7231087285
 H        -9.3724657857        8.4030757355       -3.4935319353
 H       -10.8357763793        8.8735462950       -4.2496895100
 H        -9.4539065218        8.1231619933       -5.2091104701
 H       -11.2257319379        7.5473927141        2.4938027016
 H       -10.7000287731        6.1062599342        3.4692367520
 H       -11.7761471642        5.9315722376        2.0459374104
 H        -8.7436951250        8.0168027262        2.1957981934
 H        -7.7041253281        6.9587510958        1.2933120942
 H        -8.1659695732        6.5626640064        3.0393455911
 H       -11.2509778157        0.0347342104        0.9419905400
 H       -12.4998939704        0.5553552216       -0.3188302457
 H       -12.9558898600       -0.5693081865        0.8916537673
 H       -14.1952066022        2.6411999493        0.3996278037
 H       -14.6540529183        2.4254131997        2.0550107867
 H       -14.8378173559        1.1797953219        0.9522365919
 H       -17.2198558338       -0.6912772599        7.5536634291
 H       -17.5910736774       -2.3382863799        7.6979789590
 H       -17.8443577969       -1.5602234803        6.1733390406
 H       -14.8529764979       -2.4091055053        8.5452175694
 H       -15.2430982910       -0.6646986711        8.4482592113
 H       -13.8560789147       -1.3458082820        7.5861621718
 Na       -7.3259877278        5.5222259748       -1.2072375479
