117

 C       -15.5256525022       -3.9226914155        4.4708276607
 C       -15.2717451677       -3.3662973108        5.9015107032
 O       -14.7279268356       -4.0884878869        6.6806488203
 C       -15.5891925487       -1.8545829756        6.3468370443
 C       -15.3875729719       -0.9597911788        5.0819840373
 O       -16.1046061054       -1.1306740421        4.1540913768
 C       -14.3050130929        0.1131236249        5.0967971304
 C       -14.2487735650        0.8575751388        3.7654817812
 C       -12.8509388980        0.9746316617        3.2196819530
 O       -11.8519809409        0.5753559971        3.7958041846
 C       -12.6822608455        1.6066977464        1.7879265497
 C       -11.5741523771        2.6751851307        1.7496013870
 O       -11.8950970860        3.8216639494        1.4459692768
 C       -10.1144741835        2.3687408137        2.0621843199
 C        -9.3503407769        3.5637960200        2.5893445405
 C        -9.1274069474        4.6676287165        1.6048613644
 O        -8.5282414660        4.3837584652        0.5319903040
 C        -9.6864601516        6.0954115145        1.7829920494
 C        -9.9989725895        6.7377360483        0.3266027066
 O        -9.0489101977        6.9556697900       -0.3586064571
 C       -11.4682333348        6.8355671267       -0.1857531750
 C       -11.5409585886        7.5349837361       -1.6280230966
 C       -11.7070252760        6.4978098837       -2.7322030572
 O       -12.2840131410        5.4271885538       -2.6297067354
 C       -10.8356812907        6.7459071764       -4.0486764045
 C        -9.5216379135        5.8715339812       -3.6283336123
 O        -8.5843866068        6.4530483048       -3.1490749668
 C        -9.6999390130        4.3525164685       -3.7209607059
 C        -8.5492105581        3.6615013602       -4.5387002984
 C        -7.4769538417        2.8787001093       -3.6583061108
 O        -7.4358506308        3.0680832223       -2.4751161499
 C        -6.3574004234        2.1985879856       -4.5847426723
 C        -5.3197360116        3.3781549711       -4.7228697084
 O        -5.7512417195        4.3308168471       -5.3499407775
 C        -3.8780072006        3.5502867104       -4.1537806673
 C        -3.5511472322        5.0647359725       -4.0205569296
 C        -4.4067460606        5.6894326845       -2.8739034805
 O        -5.1748942985        4.9753629341       -2.2605992945
 C        -4.3273940176        7.2078955140       -2.4859234688
 C        -4.4769662912        7.3468983436       -0.9916347540
 O        -5.4030573216        6.7905564664       -0.4593109147
 C        -3.4231623531        8.1704821728       -0.1919625423
 C        -3.0930453310        7.8518445514       -3.0801225612
 C        -5.5911038792        7.8957309465       -3.1554785219
 C        -5.7636632136        0.9221674844       -3.9785273915
 C        -6.7981133758        1.8121081825       -6.1540061090
 C       -11.6176765460        6.1726605788       -5.2868708514
 C       -10.4420503296        8.2838352574       -4.1888245042
 C       -10.8082361078        6.4643567842        2.7050879135
 C        -8.4337245196        6.9472475099        2.3500682581
 C       -12.1489101069        0.5333813817        0.7935545460
 C       -13.9664286295        2.1075377368        1.1755335126
 C       -17.0011715802       -1.5655676272        6.9267444294
 C       -14.5042296061       -1.5745124424        7.4763848775
 H       -16.4823126075       -3.5463050914        3.9448931866
 H       -15.6708925025       -4.9844438831        4.6043257029
 H       -14.6710886299       -3.6848378357        3.8448240838
 H       -13.3710127709       -0.3437570479        5.3632846212
 H       -14.4534392844        0.7764128619        5.9482562771
 H       -14.6229053977        1.9623060903        3.8519146435
 H       -14.9542561983        0.4105001406        3.1637123302
 H        -9.5886367109        1.9631286746        1.1991051364
 H       -10.0510805952        1.5568647240        2.8301511817
 H        -8.4038398655        3.2834497673        2.9633420431
 H        -9.8787099905        3.8455437236        3.5179464543
 H       -12.0187222599        7.4304990345        0.5160538283
 H       -11.7803205281        5.7709261612       -0.2951700798
 H       -10.6267383725        8.0496213805       -1.7904826822
 H       -12.3697883164        8.2009120791       -1.7159516998
 H       -10.6676217661        4.0738362711       -4.1464819503
 H        -9.7656701510        3.9462262685       -2.6956367984
 H        -8.0063417182        4.2955349027       -5.2414923667
 H        -9.0397189495        2.8585345647       -5.1114636584
 H        -3.1461747686        3.0690213514       -4.8936237909
 H        -3.7095368643        3.1028163376       -3.2200243195
 H        -3.7501268113        5.6168020351       -5.0062524455
 H        -2.5060331611        5.2519464166       -3.6995675410
 H        -2.4682917365        7.6385708707       -0.2646650024
 H        -3.7264128451        8.3932164543        0.8861858162
 H        -3.0999712866        9.0505320528       -0.6747348714
 H        -2.9492647307        8.8639485555       -2.8193495906
 H        -3.0921184355        7.9829912267       -4.1273164911
 H        -2.2566382975        7.2285810463       -2.8656627484
 H        -5.4746680372        8.9696386041       -3.1643011376
 H        -6.5697207592        7.6101825543       -2.7701633887
 H        -5.6177902208        7.6101179874       -4.2159406967
 H        -6.1962582393       -0.0207736757       -4.3109161261
 H        -6.0622043079        1.0449739325       -2.9403942963
 H        -4.6520788144        0.8240993099       -3.9505150760
 H        -5.9169262421        1.6519923045       -6.7409619834
 H        -7.4142612565        2.5945807323       -6.6215441183
 H        -7.4828988960        0.9553656646       -6.1211080269
 H       -12.1460514956        5.2360056520       -5.1053106650
 H       -10.9462497556        5.8588781639       -6.0588733538
 H       -12.2431582835        6.9762181588       -5.6316953721
 H        -9.6242415208        8.5861467720       -3.5311575910
 H       -11.3408854883        8.7751571365       -4.0394144055
 H       -10.1188754502        8.4630942625       -5.2353327670
 H       -11.0458573588        7.5259017278        2.5754479930
 H       -10.4751803311        6.4012564494        3.6844640718
 H       -11.6686378510        5.8002427539        2.4773235220
 H        -8.6466152741        7.9967433097        2.3771090760
 H        -7.6231501816        6.8717743063        1.6407190002
 H        -8.0687378412        6.5511877148        3.2906637309
 H       -11.3907077803       -0.1488468304        1.1224943536
 H       -11.6171614211        1.0587179864        0.0513042047
 H       -13.0127751204       -0.0558598075        0.3692808603
 H       -13.8168390499        2.5173113681        0.2471035823
 H       -14.4785292752        2.9052116376        1.6929395277
 H       -14.6160666443        1.2885131643        1.0457473663
 H       -17.0193601459       -0.6028236382        7.4266872931
 H       -17.3873628048       -2.3221669089        7.5490834639
 H       -17.6858083740       -1.4628685936        6.1285661838
 H       -14.6684744157       -2.3559295868        8.2164178440
 H       -14.5281196061       -0.6403864303        8.0029305242
 H       -13.5036287224       -1.6853903843        6.9987801759
 Na       -7.3952469988        5.3799866027       -1.1711634032
