117

 C       -15.8906702191       -4.0626429638        6.6791733980
 C       -15.0235604392       -2.8515227113        6.5516408531
 O       -13.8748395706       -2.9480949247        6.2510751558
 C       -15.5247000514       -1.3827141423        6.8332105338
 C       -15.6121618740       -0.6646200911        5.4488856527
 O       -16.7251559134       -0.5344765506        4.8854401435
 C       -14.3677954899       -0.1509809269        4.7870821820
 C       -14.4190299171       -0.0040944992        3.3111716140
 C       -13.0961417797        0.4623858360        2.7394253383
 O       -12.0358307254        0.1636428958        3.3621999958
 C       -12.9217464625        1.2255041541        1.4214365658
 C       -12.1983990019        2.6231686772        1.7511398567
 O       -12.9204870598        3.5681729179        1.9980949677
 C       -10.6489368364        2.6744183928        1.7409735846
 C       -10.2163110974        4.1411171741        2.2812889914
 C        -9.5420977995        4.9448721870        1.1216303429
 O        -8.7657723989        4.3980926525        0.3840770269
 C        -9.5685866462        6.5621987224        1.2909027245
 C        -9.8787570958        7.0920362101       -0.1189929707
 O        -8.9392990016        7.1401764900       -0.9343709355
 C       -11.3472949747        7.3302142878       -0.6553585040
 C       -11.3843014224        7.9405451829       -1.9921518191
 C       -11.1783627030        6.8660925793       -3.0435914410
 O       -11.8648396340        5.8874713722       -2.9008205923
 C       -10.2136657228        6.9384860117       -4.2352987942
 C        -9.1385235437        5.9081292905       -3.8184591412
 O        -7.9538760081        6.2264128264       -3.6167061065
 C        -9.5076586201        4.4520257017       -3.7653827429
 C        -8.5083228152        3.4000778844       -4.1542769770
 C        -7.6033350283        2.9024488194       -3.0835748189
 O        -7.7638420850        3.2075533037       -1.9154706502
 C        -6.3642696829        1.8909719903       -3.5857421888
 C        -5.5461420852        2.7982579735       -4.5959507859
 O        -6.1216753137        3.2360783224       -5.5571249517
 C        -4.1298266394        3.2161137822       -4.4061441366
 C        -3.7976366039        4.7064565657       -4.3369483206
 C        -4.5233075780        5.3850000536       -3.0610852183
 O        -5.3635332345        4.6894381158       -2.5030031576
 C        -4.1351278344        6.8623053838       -2.6648258893
 C        -4.5486283292        7.1840124618       -1.1969202792
 O        -5.6273440858        6.8095572486       -0.7279671845
 C        -3.4659472934        7.9076623884       -0.3272366100
 C        -2.7290853020        7.1869470549       -2.9991887719
 C        -5.0642105646        7.7040087490       -3.5502933492
 C        -5.5009901149        1.4654543549       -2.4139842150
 C        -7.0232647081        0.6010167450       -4.2498741168
 C       -10.9950192452        6.4544164704       -5.5226949407
 C        -9.5289917349        8.2392453258       -4.3627124056
 C       -10.6530805586        7.0722423542        2.2908160223
 C        -8.1967350982        7.0419426072        1.7502827001
 C       -11.9982615269        0.4658585874        0.5188311817
 C       -14.1984690831        1.6226517248        0.6771344041
 C       -16.8450731467       -1.3205819628        7.5899409725
 C       -14.3666932425       -0.9184814089        7.7867307930
 H       -16.2521906520       -4.2312012812        7.6570610801
 H       -15.2177342354       -4.8965831617        6.3545206643
 H       -16.7015784071       -4.1400518056        5.9200708756
 H       -13.6016549653       -0.8543802194        5.1054064902
 H       -14.1575941644        0.7851392904        5.2444251783
 H       -15.2233490629        0.6194859273        2.9926960133
 H       -14.7563917552       -1.0328041650        2.8618095701
 H       -10.2962041201        2.4627498954        0.7184638453
 H       -10.2462807469        1.8816503374        2.3621573360
 H        -9.5497070632        4.0993569237        3.2361763593
 H       -11.1837752028        4.5709297815        2.5799251429
 H       -11.8841118271        7.8141971316        0.1526479299
 H       -11.9266438954        6.3861289540       -0.7604539637
 H       -10.7448676201        8.8631097286       -2.1409942544
 H       -12.3482794750        8.3908335527       -2.2070269476
 H       -10.2435733172        4.2675289778       -4.6033842708
 H       -10.0639274860        4.1465440490       -2.8859159329
 H        -7.8657932928        3.8812261606       -4.9032554328
 H        -8.9591391778        2.5408825609       -4.6961803917
 H        -3.4951848196        2.7361050465       -5.1218048870
 H        -3.7345593843        2.8312112080       -3.4137535192
 H        -4.0016870169        5.3598984215       -5.1277537562
 H        -2.7010969522        4.7217098350       -4.2329717306
 H        -2.6455668117        7.2624036306       -0.0671777955
 H        -3.7684559219        8.1958969464        0.6295577631
 H        -3.0491560366        8.7127937656       -0.9635485738
 H        -2.5862576976        8.2307305430       -2.8213657948
 H        -2.6187973151        7.0579509459       -4.0569686609
 H        -2.0637964720        6.4858242927       -2.5502025563
 H        -4.8070166437        8.7501699492       -3.3693372708
 H        -6.0848953177        7.4521350355       -3.3160566645
 H        -4.9347695650        7.5040128389       -4.5965245871
 H        -6.1072833919        0.7876914652       -1.8228320600
 H        -5.2495299397        2.3582245103       -1.8051403846
 H        -4.6609570334        0.9298796442       -2.8375680441
 H        -6.3446800690       -0.1879442533       -4.5128930828
 H        -7.5394440940        0.9219350993       -5.1217268654
 H        -7.7570695157        0.2002127174       -3.5295982234
 H       -11.8953273422        5.9141273341       -5.3031404558
 H       -10.3362598772        5.6975428964       -5.9518121677
 H       -11.0939826484        7.3125021444       -6.1972582185
 H        -8.8629686801        8.5177732569       -3.6000392194
 H       -10.2307480111        9.0811671801       -4.6197292190
 H        -8.8967559086        8.1980039795       -5.2031736767
 H       -10.4156503742        8.0694896117        2.5979558228
 H       -10.5836072999        6.4675453724        3.2529450090
 H       -11.6555439434        7.1056376029        2.0227597961
 H        -8.2239987587        8.1371546310        1.9072048732
 H        -7.3750882895        6.7118885188        1.1060210411
 H        -8.0015034448        6.4830375182        2.6632721088
 H       -11.1441540906        0.1788981940        1.1838532705
 H       -11.5491047078        1.1233622163       -0.2149874123
 H       -12.5522334798       -0.3463319165        0.1451356400
 H       -14.0490698640        2.3571656771       -0.1071793088
 H       -14.7530553812        2.1130418823        1.3978840829
 H       -14.6505252643        0.7719111471        0.2613514699
 H       -16.9497916184       -0.3846258797        8.1431557307
 H       -16.8214859583       -2.1449065141        8.2877414741
 H       -17.7470509343       -1.3883683275        6.9716189283
 H       -14.6267219590       -1.1754929012        8.8218721364
 H       -14.1753244294        0.1822922129        7.7387791394
 H       -13.4308053402       -1.3143667271        7.5069049883
 Na       -7.3262660552        5.5797586206       -1.3547117550
