117

 C       -16.1706739159       -4.0456421985        5.3254438661
 C       -15.2012186873       -3.1902441067        6.2125424293
 O       -14.2326889707       -3.6996835195        6.7465616791
 C       -15.6666817747       -1.7400470367        6.6689027154
 C       -15.4262034717       -0.8858491773        5.4236028465
 O       -16.3093319061       -0.8839913120        4.6163411821
 C       -14.0479468751       -0.3529781927        5.0616919385
 C       -14.0565121421        0.6960795162        3.9665669664
 C       -12.8029136630        0.7435018423        3.1304340823
 O       -11.7218536835        0.3936326108        3.5207890235
 C       -12.8808490915        1.4225263165        1.6977033273
 C       -11.8923881920        2.6577830294        1.4946654568
 O       -12.3648334179        3.6230061511        0.9204832147
 C       -10.3590115550        2.4336400209        1.7549233032
 C        -9.8002656222        3.7268847740        2.3942967114
 C        -9.4232262013        4.6798280127        1.2985844185
 O        -8.7125427704        4.2552722890        0.3320708748
 C        -9.7671506758        6.2461096550        1.4901248661
 C       -10.0943930981        6.9151063520        0.1308938990
 O        -9.3408041779        6.6933198274       -0.7747693833
 C       -11.3820022368        7.8440776768       -0.1386965205
 C       -11.4006576728        8.1845548649       -1.6046692773
 C       -11.4082183974        6.9255318113       -2.6467152954
 O       -12.2195624828        6.0335295183       -2.5261741093
 C       -10.4392375205        6.9008534749       -4.0122253671
 C        -9.3931176582        5.8313074081       -3.7327008769
 O        -8.2476862883        6.1758739216       -3.5412128280
 C        -9.8046684550        4.2619951014       -3.7102406054
 C        -8.6079208286        3.3663620156       -4.3102391494
 C        -7.3832926108        2.9839928615       -3.3165336666
 O        -7.2379205151        3.3211559110       -2.1781551924
 C        -6.2121271761        2.1886621989       -3.9099812903
 C        -5.3254148451        3.2422880766       -4.6180757628
 O        -5.7871596632        3.8750364206       -5.5614159061
 C        -3.8374999641        3.4439053070       -4.2951733867
 C        -3.3791526738        4.8766204461       -4.1220262263
 C        -4.3770541413        5.5595565883       -3.1432743178
 O        -5.3030075256        4.8905722906       -2.6527836490
 C        -4.2569014172        7.0873016397       -2.7523348060
 C        -4.5039432336        7.2823321661       -1.1954139927
 O        -5.6039068338        6.9704755266       -0.7387659567
 C        -3.3594081415        7.7604839811       -0.3324609083
 C        -2.9040261389        7.5788014193       -3.1562124654
 C        -5.3761206096        7.7652184398       -3.5436666917
 C        -5.4893713957        1.2132446525       -2.8956129778
 C        -6.6014277577        1.2953859647       -5.1440176116
 C       -11.4293496434        6.4674955247       -5.1559874798
 C        -9.8296870865        8.3000798626       -4.3823178286
 C       -10.7923156618        6.5068413946        2.5760811895
 C        -8.4687335419        7.1287276503        1.8847469889
 C       -12.3040935779        0.4143720607        0.6742957829
 C       -14.2790089544        1.8374765601        1.2328760253
 C       -17.1697948692       -1.8097798895        7.0557860574
 C       -14.8395188300       -1.3128569481        7.8769911634
 H       -17.0766306212       -4.3145649012        5.9165797662
 H       -15.6897077059       -4.9322091318        5.0563515640
 H       -16.5320231730       -3.5185822473        4.5045732833
 H       -13.4879676885       -1.1500657598        4.5902815931
 H       -13.4111933864        0.0037659522        5.8867435905
 H       -14.1150098523        1.7219730636        4.4925575589
 H       -14.8803891042        0.5825247219        3.2910115015
 H        -9.9548477336        2.2417384209        0.7817404087
 H       -10.0297846345        1.5849783312        2.3689479102
 H        -8.9669749604        3.4483415443        3.0492723731
 H       -10.6903189816        4.1502968228        2.9716498658
 H       -11.3092329849        8.7760613490        0.4439268054
 H       -12.2076530164        7.1647736273        0.1238843818
 H       -10.4530970789        8.7387632368       -1.7569138042
 H       -12.3287621585        8.7699792174       -1.9347991330
 H       -10.6809377695        4.0470130608       -4.2990948236
 H        -9.9770932678        3.9032143564       -2.6630555995
 H        -8.2182232245        3.6970962291       -5.2840431571
 H        -9.0453910009        2.3622699428       -4.4393148610
 H        -3.1596875218        2.9779972998       -5.0590025302
 H        -3.6630445011        2.9705631525       -3.3860391775
 H        -3.2515296888        5.4801894494       -5.0336877656
 H        -2.4471801428        4.9105518801       -3.6718776742
 H        -2.6242987534        6.9793832324       -0.3885047472
 H        -3.6080684006        8.0242467342        0.7485617493
 H        -2.9123416893        8.6398085060       -0.6467339489
 H        -2.6921623899        8.6071627393       -2.9835587692
 H        -2.6336080288        7.2432137061       -4.1345874864
 H        -2.1613448683        7.1901583897       -2.4797949568
 H        -5.2325867621        8.8661576165       -3.5270210373
 H        -6.4283430855        7.6209260819       -3.1862011700
 H        -5.2575647571        7.4607856264       -4.6253833867
 H        -6.1214306869        0.3463576705       -2.6219085770
 H        -5.3226511643        1.8843150891       -2.0610786757
 H        -4.5059932974        0.8187192325       -3.2517463382
 H        -5.6962814681        0.7602602211       -5.4745366174
 H        -7.0097641020        1.8825261734       -6.0068334052
 H        -7.3065008967        0.5173104068       -4.8681553027
 H       -12.4050764490        6.1786811716       -4.7451896046
 H       -10.9153162604        5.8034597736       -5.8030459491
 H       -11.5905795152        7.3228819556       -5.7549738822
 H        -8.9282551913        8.4663928123       -3.7466995812
 H       -10.4771337691        9.0991611178       -4.1338687601
 H        -9.5635722700        8.2853202782       -5.4775409951
 H       -10.9305418818        7.5869198479        2.6151671480
 H       -10.4180454723        6.1194008441        3.4628386917
 H       -11.7423018065        6.0028895690        2.3032127887
 H        -8.6660875322        8.1821603255        1.9791723770
 H        -7.6932650664        6.9460424304        1.1781738487
 H        -8.1715064715        6.8062096363        2.8754723584
 H       -11.5882052678       -0.1414410707        1.2222668006
 H       -11.9406972133        0.8910296624       -0.2232495615
 H       -13.0857309025       -0.2826926274        0.2859870446
 H       -14.2332796227        1.9365421572        0.1735844780
 H       -14.6134122594        2.8056334881        1.7183596396
 H       -15.1171332612        1.1568703459        1.4787207074
 H       -17.6031426406       -0.9195414726        7.5005142619
 H       -17.2350835164       -2.5417105477        7.8545921639
 H       -17.8027150139       -2.1931366634        6.2880979312
 H       -15.2884626511       -1.7563258627        8.7537853794
 H       -14.8618152979       -0.2634908422        8.0115817314
 H       -13.7887938708       -1.7047561306        7.9258116254
 Na       -7.3569338229        5.4139129790       -1.3389432695
