117

 C       -15.3232083157       -3.5258234207        7.9133566853
 C       -14.8407851982       -2.5783536796        6.8139419107
 O       -14.0458881943       -3.0368067724        6.0035357579
 C       -15.2740022064       -1.0668940822        6.7852094923
 C       -15.2035156547       -0.3861997460        5.4376363201
 O       -16.1873048292       -0.2250405058        4.7850186912
 C       -13.7645372891        0.1223747987        4.8479591995
 C       -14.0733516117        0.7314760603        3.5128640384
 C       -12.8487719373        0.6754608059        2.5643022178
 O       -11.7975710166        0.2730989589        2.9767474623
 C       -12.9119949016        1.2811798701        1.0874649777
 C       -12.5005334749        2.7773110008        1.3516123668
 O       -13.3521012968        3.6772337343        1.4794206848
 C       -11.0754145101        3.1824997283        1.7107386092
 C       -11.0129065931        4.7664554565        1.8406250157
 C        -9.7942360685        5.3300643755        1.2292474660
 O        -8.9462192728        4.7105119868        0.6491078091
 C        -9.6304215948        6.9264354860        1.2816322204
 C        -9.8787751293        7.3264486913       -0.2882224935
 O        -9.0583451489        7.0798698523       -1.1513042159
 C       -11.2207900389        7.9087330572       -0.6969977717
 C       -11.4656415026        8.0904816330       -2.2062184231
 C       -11.2628035941        6.7455504940       -2.9903676651
 O       -11.9735783241        5.8197945332       -2.6859083765
 C       -10.1663249125        6.6538531446       -4.2403578314
 C        -9.2944626056        5.4184586216       -3.7301770220
 O        -8.2697410818        5.7472437388       -3.2014651703
 C        -9.6964911482        4.0028409768       -4.0599395287
 C        -8.4821552629        3.1626409965       -4.5320769391
 C        -7.6872474964        2.5794684959       -3.3346547298
 O        -7.9754106421        2.8385166693       -2.1591428315
 C        -6.5970088439        1.6096459611       -3.7105242645
 C        -5.3726229248        2.4894875895       -4.2638455307
 O        -5.5726800387        3.3214285803       -5.1129771274
 C        -4.0516045174        2.5752523076       -3.5339039825
 C        -3.5897116044        4.0329988139       -3.6410407702
 C        -4.4959666820        5.0060486805       -2.7596194164
 O        -5.4456566771        4.5365715400       -2.1271498546
 C        -4.2642631394        6.5663593799       -2.6728834515
 C        -4.3196417224        6.9613871227       -1.0981883049
 O        -5.3918249072        6.7928990849       -0.5413305569
 C        -3.1083399984        7.5136652815       -0.4045837537
 C        -2.9790440383        6.9995539933       -3.4030637178
 C        -5.4393886339        7.2617286874       -3.3087529554
 C        -6.1187016273        0.6987624870       -2.4916953054
 C        -7.0252420390        0.7149156068       -4.8989077376
 C       -10.9748139230        6.4138153063       -5.5122470149
 C        -9.2661885195        7.9704221005       -4.3886998818
 C       -10.6787573436        7.5818634443        2.1977794788
 C        -8.2135244508        7.4701793543        1.5799300764
 C       -11.8611069269        0.5577117896        0.1748605256
 C       -14.2940142336        1.2092794262        0.4105509130
 C       -16.7233296864       -0.9820343402        7.2949007969
 C       -14.2989721863       -0.3472079957        7.7699543916
 H       -15.2116618597       -3.0969640889        8.9404995090
 H       -14.7103808348       -4.4518744312        7.9254152897
 H       -16.4148267271       -3.7279070860        7.8061567888
 H       -13.1636073379       -0.7598857488        4.7699470843
 H       -13.1863632316        0.7849025158        5.4618559361
 H       -14.3202466321        1.8682480757        3.7055554284
 H       -14.9364194968        0.2196256246        3.1168384854
 H       -10.4747770444        2.8958716601        0.8253249918
 H       -10.6977545564        2.6990497808        2.6143821202
 H       -11.1107809688        5.1055677610        2.9052480584
 H       -11.9053209763        5.2530317232        1.4393899247
 H       -11.3379574658        8.8569862384       -0.0970373825
 H       -11.9832910888        7.2680522565       -0.2666042844
 H       -10.7014112505        8.6997608116       -2.6074188192
 H       -12.5395142024        8.3724783570       -2.3894776659
 H       -10.4482530995        4.0079383382       -4.8430805882
 H       -10.2049651100        3.4880388536       -3.2180767423
 H        -7.8815238541        3.8043796387       -5.2022809275
 H        -8.8410651555        2.3138288124       -5.1340752062
 H        -3.2698849710        1.8283328638       -3.8807950079
 H        -4.2073626576        2.3779846403       -2.4957848227
 H        -3.6258835214        4.4786323040       -4.6568960654
 H        -2.5291737142        3.9808376220       -3.3047767815
 H        -2.3441945074        6.6696613137       -0.2952406286
 H        -3.4221638645        7.9562427599        0.5231799931
 H        -2.5614865325        8.2953997530       -0.9620228797
 H        -2.6721830302        8.0155750841       -3.0729544407
 H        -3.2072340624        7.0997106093       -4.4830574382
 H        -2.1965893768        6.3063973062       -3.0545267462
 H        -5.3457242372        8.2706902738       -2.9410004045
 H        -6.3953032563        6.9281593333       -2.9175977853
 H        -5.3525565475        7.2876665439       -4.4009288490
 H        -7.0303928301        0.2304083413       -2.1243051549
 H        -5.6141308129        1.2515931512       -1.7365267527
 H        -5.5160094545       -0.0357134887       -3.0024829788
 H        -6.4636424984       -0.2285111578       -4.7733454142
 H        -6.7675722467        1.1115250292       -5.9001843450
 H        -8.0548041512        0.4538456658       -4.8631289188
 H       -12.0048950581        6.0079098488       -5.3534919050
 H       -10.3806341648        5.8098556455       -6.2058170758
 H       -11.2012153070        7.3585580507       -6.0424590297
 H        -8.8133940693        8.3485027429       -3.4348171453
 H        -9.9543033991        8.7342830025       -4.6555060584
 H        -8.4768071626        7.9479901060       -5.1805914082
 H       -10.4776917916        8.6320730483        2.4013895877
 H       -10.6697531168        7.2329187904        3.1764369558
 H       -11.7680636701        7.5049339454        1.9302575069
 H        -8.1908789473        8.5211700598        1.8115044348
 H        -7.5948347176        7.2912638118        0.6872384365
 H        -7.8573891912        6.9964800601        2.4907009990
 H       -10.8720029452        0.7766728286        0.4299229653
 H       -12.1846385978        0.6993151607       -0.8737740207
 H       -11.8865868576       -0.5233689027        0.4239979924
 H       -14.2809571336        1.8354023374       -0.4713886232
 H       -15.0562934647        1.5679880070        1.1453463472
 H       -14.5672050693        0.1398390622        0.2734216989
 H       -17.0483848221        0.0590207666        7.2081829478
 H       -16.7129456519       -1.2715439387        8.3719752990
 H       -17.3947887492       -1.5958256943        6.6839105478
 H       -14.1455482822       -0.9040852807        8.6722387185
 H       -14.8430112991        0.5004338280        8.0866136904
 H       -13.2951758690       -0.0380067437        7.4207692022
 Na       -7.4112577667        5.3509739638       -1.0388208734
