117

 C       -15.4464727830       -3.5609497673        7.8403508776
 C       -14.7784552543       -2.6674512198        6.7845547850
 O       -13.9685614622       -3.0718013609        5.9653348020
 C       -15.2756320062       -1.1355458697        6.8406844486
 C       -15.2101808090       -0.4733154013        5.3733308989
 O       -16.1997456905       -0.1792780543        4.7800779182
 C       -13.9186097681        0.0917446002        4.8100781753
 C       -14.1352038414        0.7208401077        3.4112238799
 C       -12.8487924481        0.7418267204        2.6493711253
 O       -11.8416555577        0.2259200472        3.0141669791
 C       -12.9319059944        1.3577883331        1.1599701760
 C       -12.5156622575        2.8381042933        1.4750085020
 O       -13.3789626366        3.6551239274        1.5976543553
 C       -10.9929066895        3.1457527966        1.6685799143
 C       -10.8952560992        4.6726999678        1.8572879120
 C        -9.7346350840        5.3594103818        1.1639391806
 O        -8.9527973703        4.6691234895        0.5739610541
 C        -9.6523822273        6.9375973118        1.2466441335
 C        -9.9749281591        7.3560454164       -0.1871607390
 O        -9.0788061247        7.0815457805       -1.0245350011
 C       -11.3876148348        7.7402916868       -0.6267296403
 C       -11.3053698899        8.0842852979       -2.1456355320
 C       -11.2524536319        6.8061343516       -3.0332591329
 O       -11.9897655478        5.8583545820       -2.8599586658
 C       -10.2804154567        6.6482491506       -4.1917600199
 C        -9.2949321941        5.4873834064       -3.7815326158
 O        -8.2558913450        5.6746926137       -3.1922085973
 C        -9.7235689126        4.0611309774       -4.0799747957
 C        -8.5225225354        3.1420512015       -4.4600263527
 C        -7.6956644037        2.7060251881       -3.2820021268
 O        -7.8876033846        3.0505568514       -2.1671549551
 C        -6.4624762820        1.5613385961       -3.7369618756
 C        -5.3743784715        2.5715626734       -4.2961160464
 O        -5.6866195325        3.1537742309       -5.3366678164
 C        -3.9575865946        2.6965507779       -3.5834074473
 C        -3.5561586856        4.1515493828       -3.6246120821
 C        -4.4816907913        5.0575411846       -2.7609090441
 O        -5.4131862971        4.4983897720       -2.2873639518
 C        -4.2425492156        6.6144208309       -2.6782517040
 C        -4.3306092918        6.9921792499       -1.1629098483
 O        -5.3481255669        6.8096052476       -0.5095965947
 C        -3.1275930402        7.5667935682       -0.4453323844
 C        -2.8520349855        7.0250509640       -3.3321091818
 C        -5.4280294119        7.4259244554       -3.3603627787
 C        -6.1421413210        0.7704619192       -2.4889948157
 C        -7.0515353595        0.6570624851       -4.8686551449
 C       -10.9500468274        6.4015366557       -5.5647100434
 C        -9.3119175900        7.8162580068       -4.2697590780
 C       -10.7307786054        7.4620357812        2.2713237937
 C        -8.2658560522        7.3135941696        1.6888964239
 C       -11.8308216258        0.6650094308        0.3045213415
 C       -14.2444630095        1.3203265964        0.3548792318
 C       -16.7429210575       -0.9910500288        7.3555909884
 C       -14.2938265477       -0.4120412807        7.8031629589
 H       -15.8150518129       -2.9147046393        8.7143446818
 H       -14.7864857465       -4.2577278748        8.3268698725
 H       -16.3152884761       -4.0214945225        7.4421806938
 H       -13.1082565806       -0.6884838563        4.8472956133
 H       -13.5213733631        0.8734993951        5.4789325894
 H       -14.4371901310        1.7315312539        3.4926610502
 H       -14.8328753378        0.2086812552        2.8225128532
 H       -10.3877605858        2.7831813792        0.8181388101
 H       -10.7217199449        2.6622286716        2.5972993282
 H       -11.0522597784        4.8696448363        2.9375640896
 H       -11.7984493473        5.0695965209        1.5090509503
 H       -11.7520638607        8.5399558581        0.0390674276
 H       -12.1325367900        6.9310303648       -0.4891591681
 H       -10.5104047202        8.7075059798       -2.4362120085
 H       -12.2786578063        8.4297743372       -2.4167546001
 H       -10.5298626623        3.9221712416       -4.8390930501
 H       -10.1861354809        3.6941878237       -3.1865272885
 H        -7.8886894622        3.6745971296       -5.1570048499
 H        -8.8470493352        2.2411298527       -4.9913430383
 H        -3.2692788522        2.1501455120       -4.2290503923
 H        -3.8866929501        2.2183518320       -2.5427568249
 H        -3.5906386759        4.5623764137       -4.6323310860
 H        -2.4547001420        4.1004799130       -3.2904051262
 H        -2.3107206256        6.9025928796       -0.3249459546
 H        -3.5897076960        7.9884776771        0.5315669419
 H        -2.6852461164        8.4507415415       -0.9601275496
 H        -2.6001064176        8.0788110322       -3.0545889658
 H        -3.0555959625        7.0457450945       -4.4195258932
 H        -2.0594107032        6.4179749247       -2.9251475470
 H        -5.3120759751        8.4632174890       -2.9689164870
 H        -6.3977784784        7.0840954150       -2.9397455441
 H        -5.3588040946        7.4153976061       -4.4664223605
 H        -7.0669411762        0.1763239858       -2.3997614202
 H        -5.9970146447        1.4360941925       -1.6559851265
 H        -5.3306016303        0.1218842088       -2.7335937306
 H        -6.4874407155       -0.3031214315       -5.0438755764
 H        -7.0676463844        1.2397567190       -5.8194831206
 H        -8.0684012655        0.3950309153       -4.6078913531
 H       -12.0039930057        6.1604387644       -5.4801831492
 H       -10.4097595409        5.6983915504       -6.1909795503
 H       -10.9485033947        7.3407508414       -6.1358320375
 H        -8.6794037500        7.9545477396       -3.3608870046
 H        -9.7879651673        8.8098600660       -4.4024025725
 H        -8.6883266027        7.6226738578       -5.1270218838
 H       -10.8163757973        8.5428287738        2.3509285707
 H       -10.4389481859        7.2593687927        3.3194511743
 H       -11.7437831963        7.0810076465        2.2418321414
 H        -8.1015463625        8.3747028164        1.8269242353
 H        -7.5698337123        6.9509791379        1.0112517452
 H        -8.1922031929        6.9116772169        2.6842674878
 H       -10.9291596141        0.7985823385        0.8687251813
 H       -11.8738495611        0.9947706265       -0.7665171435
 H       -11.9263690934       -0.3833393457        0.3489686744
 H       -14.2361013379        2.0745628625       -0.4330245463
 H       -15.1478023025        1.3910599580        1.0417072304
 H       -14.2910962084        0.2587223029        0.0233756532
 H       -16.8868205100        0.0004272741        7.7046569781
 H       -16.9297498830       -1.6522584813        8.2127187238
 H       -17.4265468298       -1.2003683396        6.5352301713
 H       -14.1458666517       -0.9489417327        8.7193808568
 H       -14.7584810112        0.5366991773        8.0780088885
 H       -13.2909971265       -0.2505290962        7.4317582292
 Na       -7.3675412612        5.3058494620       -1.0774011634
