117

 C       -15.2176558635       -3.4565485877        7.9807097586
 C       -14.7722362467       -2.5432363153        6.8183934619
 O       -14.0874850656       -2.9250046598        5.9259345008
 C       -15.2731002736       -0.9700456538        6.9291746028
 C       -15.1599045606       -0.3881067022        5.4451581075
 O       -16.1868491525       -0.2579493076        4.7463629396
 C       -13.8460367961        0.0438234399        4.7904350436
 C       -13.9726435488        0.7922506205        3.4574609586
 C       -12.7610668203        0.6494955098        2.4819603792
 O       -11.6495864926        0.2739590658        2.9098603903
 C       -12.8742893455        1.2583773791        1.0874179752
 C       -12.5639586033        2.7949343610        1.2622379669
 O       -13.5235043831        3.5548650460        1.2611686059
 C       -11.0908891546        3.2418536367        1.6491305420
 C       -10.9756372096        4.7819374623        1.8900380907
 C        -9.7417343202        5.3907064746        1.2975414917
 O        -8.8805474589        4.6961348877        0.7171834507
 C        -9.6380451689        7.0470088649        1.1442303859
 C        -9.9263769339        7.3337559522       -0.3818165982
 O        -9.0393067594        7.1428712642       -1.1540617684
 C       -11.1979507100        8.0835660891       -0.7986015386
 C       -11.5298284806        8.1624765904       -2.2392531824
 C       -11.2472878173        6.7883281571       -2.9778950622
 O       -11.8233628238        5.7806762153       -2.6301974891
 C       -10.2706142240        6.7724414245       -4.1525707996
 C        -9.2543418972        5.5290520154       -3.8620496431
 O        -8.1995961861        5.6624403358       -3.2258626775
 C        -9.6950172026        4.1128627553       -4.0665978321
 C        -8.5278808836        3.2057085692       -4.4936754649
 C        -7.7912857347        2.4269083350       -3.3536734358
 O        -8.0184252421        2.6836878809       -2.1690298247
 C        -6.5460767163        1.5266606438       -3.7998335086
 C        -5.4766249754        2.6128520430       -4.0902086255
 O        -5.6186692910        3.3408296260       -5.0436617952
 C        -4.0806298176        2.6185628412       -3.3432079925
 C        -3.5350609596        4.0766161649       -3.3990401142
 C        -4.5374008572        4.9300661334       -2.7439051408
 O        -5.4289816119        4.4196815079       -2.0407394902
 C        -4.2558316503        6.5138328001       -2.6343701060
 C        -4.3209922324        6.8365063553       -1.0962144662
 O        -5.4005807642        6.7618734026       -0.5331933777
 C        -3.1160930777        7.3989293516       -0.4199328703
 C        -2.9759815418        6.9499280619       -3.4048542312
 C        -5.5283513581        7.1600832370       -3.3499980465
 C        -6.1699692555        0.6480437012       -2.5038779889
 C        -6.9346199173        0.6617847464       -4.9756319121
 C       -11.0291003231        6.3914198383       -5.4281187317
 C        -9.4032686364        7.9213816113       -4.4194668423
 C       -10.5749496603        7.7437776439        2.0595298868
 C        -8.1772142381        7.5002920275        1.5029522088
 C       -11.9058940846        0.4866468638        0.1171788740
 C       -14.3644103373        1.1377364423        0.5741662465
 C       -16.7420772164       -0.9372377423        7.3075058099
 C       -14.3038163176       -0.2939387642        7.9220318567
 H       -14.6529190262       -3.2986070261        8.8466620125
 H       -15.0346564360       -4.5405259643        7.7286505519
 H       -16.2967298794       -3.2622013285        8.2893195391
 H       -13.2390182606       -0.8232241903        4.7424377663
 H       -13.4058096689        0.6651744186        5.5500204731
 H       -14.1498893668        1.9032367415        3.6642805360
 H       -14.9106650443        0.2707948638        2.9824029776
 H       -10.4270895815        2.9436079567        0.8426527228
 H       -10.7589855078        2.7206349215        2.5803674141
 H       -11.0917847604        5.0441621800        2.9339093811
 H       -11.8748563577        5.3777987919        1.4546842231
 H       -11.0954458779        9.0949088618       -0.3696274340
 H       -12.0231140449        7.6580285044       -0.2327735908
 H       -10.7496462026        8.8434428252       -2.6941783892
 H       -12.6262528412        8.3612478000       -2.3866936869
 H       -10.5690067467        3.9351522794       -4.6605099302
 H        -9.9989899031        3.7885042416       -3.0255513298
 H        -7.7841607909        3.8932809674       -4.9665062452
 H        -8.8514506520        2.4962802960       -5.2700953768
 H        -3.4834634445        1.9610476131       -3.9943732535
 H        -4.0767877068        2.1607552525       -2.3961886492
 H        -3.6284225415        4.3800708770       -4.4768337736
 H        -2.5491837487        4.2277185688       -3.0708283583
 H        -2.4016903953        6.5331113434       -0.3382354528
 H        -3.3868797358        7.8259432583        0.4963846863
 H        -2.5807905404        8.1943549828       -0.9365741398
 H        -2.9359558735        8.0241596297       -3.3565462556
 H        -3.1653984612        6.7460173873       -4.4565574070
 H        -2.0662013132        6.5121132906       -2.9363800993
 H        -5.4984440307        8.2309186533       -3.3142451721
 H        -6.4086388618        6.8665418451       -2.8259786839
 H        -5.4752694560        6.8564556867       -4.3709500305
 H        -7.0874024510        0.2427696812       -2.1811968535
 H        -5.8304063533        1.3650392280       -1.7519266062
 H        -5.4466291605       -0.1132512476       -2.8004233320
 H        -6.2658126380       -0.1488094213       -5.0150429251
 H        -6.9359201193        1.1258399126       -5.9328078669
 H        -7.9254389344        0.2139374968       -4.7343350955
 H       -11.7356547803        5.5523530749       -5.3285108990
 H       -10.2264875600        6.1915703569       -6.1680098021
 H       -11.7302564507        7.1699272195       -5.8050432352
 H        -8.9135421477        8.2770058191       -3.5375337642
 H        -9.9938976347        8.7404465732       -4.8626298891
 H        -8.6074436186        7.6837290056       -5.1532303020
 H       -10.3644407143        8.7671585937        2.3034024447
 H       -10.5582735517        7.3172988396        3.0590786459
 H       -11.6094756967        7.6986960545        1.7864762635
 H        -8.1237033161        8.5568965286        1.7937593075
 H        -7.4834073179        7.3627553086        0.6134447934
 H        -7.9072179086        6.9614916137        2.4252447318
 H       -10.8169529098        0.6449436337        0.2283412825
 H       -12.3183559589        0.6494768170       -0.8261605653
 H       -11.9844889295       -0.6047779041        0.3627462484
 H       -14.3444016895        1.4863666138       -0.4776258772
 H       -14.9583100406        1.8143358204        1.1013830467
 H       -14.7924049905        0.1835846231        0.7588949087
 H       -17.1732175993       -0.0584207909        6.7303471946
 H       -16.8921726573       -0.8096739670        8.3687451982
 H       -17.2596190264       -1.8046456530        6.8761865783
 H       -14.3601247069       -0.7223984519        8.9455584106
 H       -14.5675621120        0.7498884796        8.0638488489
 H       -13.2816741191       -0.3493913813        7.5743522949
 Na       -7.3883069216        5.3525019903       -1.0113841984
