117

 C       -14.0331024565       -2.5201013245        8.2530903931
 C       -14.2564970471       -1.8492994844        6.8786591846
 O       -13.9331463539       -2.3444624518        5.8392017628
 C       -14.9220080819       -0.4793094534        6.9418091427
 C       -15.0501547247       -0.0642777788        5.4209166719
 O       -16.1340187267        0.0828089773        4.8568649121
 C       -13.7995748276        0.0804780484        4.6184413221
 C       -13.9585726965        0.5998792601        3.2449558500
 C       -12.6454851363        1.0003704972        2.5636664502
 O       -11.5925931181        1.2375749462        3.1374104949
 C       -12.7313327910        1.2128566451        0.9608848563
 C       -12.6112761687        2.7723684677        0.7932164062
 O       -13.5925096097        3.4970266212        0.7498489355
 C       -11.2851722641        3.4139143393        0.6239415943
 C       -11.1485829911        4.8176684830        1.2472664794
 C        -9.8017438136        5.5064775117        0.7276628093
 O        -9.0115793994        4.7959034299        0.1356808445
 C        -9.6467416962        7.0633697539        0.9822900407
 C        -9.5730043788        7.7828627789       -0.4584922627
 O        -8.5489019140        7.8002411866       -1.1551867652
 C       -10.9187316388        8.3708513781       -0.9804757153
 C       -11.1316117768        8.2657535015       -2.4849821578
 C       -11.2831573442        6.8197256226       -2.9698913032
 O       -11.6705129475        5.9667410023       -2.1824144167
 C       -10.6272432228        6.4334154506       -4.3951574021
 C        -9.6777128657        5.2835702393       -4.0076509391
 O        -8.5340738667        5.5689899694       -3.8348861676
 C       -10.1356297554        3.8461644913       -3.8166836148
 C        -9.1679278029        2.7809106532       -4.3368029534
 C        -7.9521184080        2.4854005700       -3.4464594300
 O        -7.8814119158        3.1328889554       -2.3980328602
 C        -6.8308810917        1.3702335493       -3.6697122088
 C        -5.5238388988        2.1034228566       -3.7859798953
 O        -5.3833595120        2.7918610154       -4.7532592323
 C        -4.4680710386        2.0435312948       -2.6994884172
 C        -3.6444830088        3.3802218917       -2.7087370452
 C        -4.4821203321        4.4325173031       -1.9363046419
 O        -5.6012761218        4.1609983566       -1.5869614145
 C        -3.8779785443        5.8898088238       -2.0091811946
 C        -4.4973897226        6.7780765574       -0.8276509441
 O        -5.7259518212        6.8387906999       -0.7376678741
 C        -3.7053236610        7.4156323875        0.2758230020
 C        -2.3708593462        5.9407027493       -2.0343081942
 C        -4.4377997806        6.5650469307       -3.3350326979
 C        -6.9518451190        0.4689081683       -2.3707110437
 C        -7.1491572775        0.4723904806       -4.8897472343
 C       -11.8790789440        6.0755544540       -5.2528321557
 C        -9.9169322513        7.6498254581       -5.0426292529
 C       -10.7088061014        7.6388243615        1.8614350302
 C        -8.2558719478        7.2434738894        1.6706908109
 C       -11.6074397269        0.4071198879        0.2856856482
 C       -14.0529749633        0.8022544253        0.3496323470
 C       -16.3930173728       -0.7182304022        7.5620443342
 C       -14.0294239449        0.5289743489        7.7145054172
 H       -14.8626492104       -2.4241129227        8.8973172388
 H       -13.1137157364       -2.0701725677        8.7710457022
 H       -13.8923969534       -3.6376281617        8.2259842577
 H       -13.4013217509       -0.9281819395        4.5113819963
 H       -13.0028157031        0.6664563804        5.0447585408
 H       -14.5282907381        1.5656496380        3.3241157897
 H       -14.5916563009        0.0541003836        2.6216810224
 H       -11.1962975078        3.5172043673       -0.4787416877
 H       -10.5345747300        2.6813436810        0.8657114716
 H       -11.0399581635        4.6897783975        2.4028201807
 H       -12.0736977768        5.3806533227        1.0216676060
 H       -11.0666923672        9.4312912463       -0.7154716663
 H       -11.6648463221        7.7525123511       -0.4977900006
 H       -10.3580767293        8.8056520429       -3.0251548867
 H       -12.0429830464        8.8360329163       -2.8850196018
 H       -11.0543799945        3.6863114426       -4.4187989781
 H       -10.2777260977        3.6503864695       -2.7378261469
 H        -8.7963808312        3.0419351922       -5.3429746958
 H        -9.7254384098        1.8084538546       -4.3624470891
 H        -3.7445504216        1.2391968758       -2.9860673950
 H        -4.8864143818        1.7712911905       -1.7870274082
 H        -3.5066632897        3.5605532347       -3.7488382914
 H        -2.6692277953        3.2108687108       -2.2884107927
 H        -3.5774512868        6.8178403889        1.2399856438
 H        -4.2574673869        8.2254657445        0.6175155750
 H        -2.7366939598        7.7831487510       -0.0446723229
 H        -2.0566883303        6.9917008823       -2.0690153210
 H        -1.8790433061        5.5595773239       -2.9384106243
 H        -1.8644554866        5.5897120556       -1.1094925379
 H        -3.9045171933        7.4864767681       -3.4646672522
 H        -5.5242343386        6.6473622722       -3.2707398487
 H        -4.1658578208        5.8820971475       -4.1523897740
 H        -7.9269467888       -0.0262707725       -2.3069329596
 H        -6.7765462241        1.1220905469       -1.5314758363
 H        -6.1739662620       -0.3014993413       -2.4200028735
 H        -6.6278201926       -0.4988020268       -4.8121574594
 H        -6.8553662797        0.9040844634       -5.8625423239
 H        -8.2058608702        0.2840100420       -4.9914737889
 H       -12.6423166261        5.4098922833       -4.7703050463
 H       -11.6558776823        5.6141456006       -6.2215822723
 H       -12.3420856120        7.0264291618       -5.5704650527
 H        -9.1019337607        7.9584060807       -4.3476483226
 H       -10.4915796992        8.5254787346       -5.1589100066
 H        -9.4672721151        7.3247640478       -6.0109811393
 H       -10.5240688033        8.7220392637        1.9290646190
 H       -10.6558464811        7.1924204541        2.8134485653
 H       -11.7235498414        7.4165783449        1.4209714235
 H        -8.1635905290        8.2886505674        1.9203519534
 H        -7.5078810316        6.8601045388        0.9213041062
 H        -8.1051276179        6.6860889835        2.5947249137
 H       -10.7628516676        0.3136360453        0.9247600304
 H       -11.2083600990        0.9601569349       -0.6076434157
 H       -11.9255396166       -0.5967392168       -0.1196887466
 H       -14.1977629741        1.1646129025       -0.6806160153
 H       -14.8785597890        1.1615759333        0.9663975030
 H       -14.1855587299       -0.3025022654        0.2414338606
 H       -17.0018167627        0.1308974689        7.2517976367
 H       -16.4759946374       -0.7484400854        8.6645503415
 H       -16.7930336121       -1.6448094267        7.1451057793
 H       -14.5291027056        0.8088299956        8.6100058520
 H       -13.9690254566        1.4114754119        7.1325966732
 H       -13.0458533492        0.1400515958        8.0228260002
 Na       -7.6810844072        5.5643082273       -1.6069279990
