117

 C       -14.3069618635       -2.8165278074        8.4855728354
 C       -14.4875983798       -2.2410457940        7.0246022927
 O       -14.2071244871       -2.8603457465        6.0481795246
 C       -15.0636665381       -0.7535962626        6.9167348737
 C       -14.9539348134       -0.1756334962        5.3419064790
 O       -16.0490894369        0.1311037006        4.8255663631
 C       -13.5983371936        0.2062634802        4.6998998114
 C       -13.8890834584        0.9988698020        3.3658304679
 C       -12.7078642125        1.0026489751        2.4545673586
 O       -11.5489019761        0.9495900492        2.8292865450
 C       -12.8464123302        1.2935738209        0.8953697025
 C       -12.5648703697        2.8374086508        0.8746196835
 O       -13.4387332064        3.6622898633        0.8763437046
 C       -11.0499294434        3.2914476871        1.0843151196
 C       -11.0594893965        4.8017972266        1.1293280460
 C        -9.8237316711        5.6016188458        0.7709533660
 O        -8.9069716750        4.9970487143        0.2212235948
 C        -9.6514320080        7.1581935520        1.1103460031
 C        -9.8884218088        7.7531535373       -0.3903367092
 O        -8.9152312561        7.5704392319       -1.0987963536
 C       -11.2193514455        8.3382805390       -0.8739912416
 C       -11.2872861982        8.2661137588       -2.4024292696
 C       -11.0814291171        6.7906142627       -2.8552448070
 O       -11.5712002537        5.8858555970       -2.1943944511
 C       -10.4640315185        6.4500563928       -4.2219269956
 C        -9.3780214352        5.2523674239       -4.0147212831
 O        -8.1925530059        5.5521160737       -3.8373337942
 C        -9.9906255262        3.8856039772       -4.0056795388
 C        -8.9058641744        2.8787006678       -4.4352095187
 C        -7.9582329397        2.5242837824       -3.2665580608
 O        -8.0395744886        2.9275173514       -2.1161224678
 C        -6.9063985594        1.3837175798       -3.6686371673
 C        -5.5719701470        2.3090021287       -3.8412511230
 O        -5.6107980247        3.1748391168       -4.6514553243
 C        -4.3036452855        2.1666007861       -2.8788361130
 C        -3.5403192403        3.5029603621       -2.6644965227
 C        -4.5448875478        4.5263406005       -2.2016892333
 O        -5.5869140118        4.1360908932       -1.7344050002
 C        -4.1650350039        6.1168259996       -2.2929009648
 C        -4.5774285082        6.7480825610       -0.9574805461
 O        -5.6749631639        6.6286609497       -0.5219184091
 C        -3.5045204437        7.2648949151        0.0000237307
 C        -2.6571341217        6.4160456380       -2.6314902049
 C        -4.9865755533        6.8029787909       -3.4419116700
 C        -6.6958455588        0.2581916033       -2.5214836461
 C        -7.0444255646        0.8273789700       -5.0894222579
 C       -11.5716404973        6.0931335457       -5.2425545219
 C        -9.6244393154        7.6015675442       -4.8524784248
 C       -10.6576321086        7.7041029750        2.1371730141
 C        -8.2378822612        7.3788024648        1.6072603075
 C       -11.7158186752        0.4867889924        0.1924464579
 C       -14.1833348880        0.8820858976        0.3191277634
 C       -16.6136103187       -0.8464639488        7.2935803316
 C       -14.2027658759        0.2256435898        7.7832850781
 H       -15.1288184571       -3.3634696922        8.7325940850
 H       -14.1194665397       -2.0874115721        9.2803571411
 H       -13.5245355821       -3.5518877995        8.4906060270
 H       -12.8534069155       -0.6236395624        4.4860743055
 H       -13.1511693298        0.9230019360        5.4475222451
 H       -14.0523012700        1.9899840124        3.6308550464
 H       -14.7977490553        0.7103322201        2.8607840235
 H       -10.5009071089        2.8697228539        0.2341925854
 H       -10.5121089193        2.8557282413        1.9247742246
 H       -11.3908863111        5.1333995198        2.1105005113
 H       -11.8045939468        5.1397693709        0.4533435172
 H       -11.2838039314        9.3694633984       -0.4280218175
 H       -12.0063449943        7.7056599792       -0.5113734483
 H       -10.5853378064        8.8716457283       -2.9385218102
 H       -12.2349576846        8.5342816736       -2.7867557628
 H       -10.7950859772        3.8780974901       -4.6892541992
 H       -10.2792553217        3.6526501312       -2.9714705124
 H        -8.3537770607        3.2555743025       -5.2920791989
 H        -9.2961949537        1.8851884114       -4.5956190858
 H        -3.6717285616        1.2715744117       -3.2206118717
 H        -4.6465230490        1.8575039457       -1.9255773853
 H        -3.0350441191        3.8994086998       -3.5938145694
 H        -2.7771123046        3.3051730727       -1.9137075510
 H        -2.8448232530        6.3884102020        0.2000245650
 H        -3.8212471855        7.5609030465        0.9884854489
 H        -2.9581876577        8.1399490298       -0.3548152887
 H        -2.4824653071        7.4704666663       -2.7185634790
 H        -2.2918812192        5.9473093931       -3.5267776384
 H        -1.9321804650        6.0800523937       -1.8765126762
 H        -4.9467826326        7.8424924740       -3.1789402572
 H        -5.9930451283        6.3913034404       -3.3928043635
 H        -4.5551670471        6.6582044466       -4.4273310842
 H        -7.3851717212       -0.5441121592       -2.7196953919
 H        -6.8652181784        0.7154057318       -1.5349540618
 H        -5.6784956441       -0.1709822627       -2.6441246539
 H        -6.1400291252        0.2964455097       -5.2627747094
 H        -7.2319054558        1.4652442863       -5.9210577872
 H        -7.8205546222        0.0395971506       -5.1467805780
 H       -12.2461828221        5.3152323153       -4.9301602192
 H       -11.1964692817        5.7231273814       -6.1775382094
 H       -12.0943851465        6.9989777351       -5.5000044075
 H        -8.7144957104        7.8330596904       -4.3253962782
 H       -10.2167574044        8.4871101127       -5.0150533056
 H        -9.3033852312        7.3196100322       -5.8901157873
 H       -10.6027942216        8.8072838380        2.1783138785
 H       -10.4633219147        7.2784968679        3.1139241081
 H       -11.6977732822        7.4578598714        1.8823129200
 H        -8.1145774173        8.3825024991        1.9551784426
 H        -7.5245048234        7.0088366923        0.8401446014
 H        -8.0605746191        6.6080181010        2.3438740996
 H       -10.7249816378        0.8470164374        0.3698615486
 H       -11.8088663330        0.5381757047       -0.8580125062
 H       -11.9395002135       -0.5722160881        0.4517870150
 H       -14.1024136289        0.5417976292       -0.7205038993
 H       -14.8503444971        1.6796377019        0.3868998711
 H       -14.6093190191        0.0207152018        0.7515808601
 H       -17.0720833695        0.1532319496        7.4293773296
 H       -16.7239686211       -1.4304954393        8.1875846557
 H       -17.1013859366       -1.3996094790        6.5052150405
 H       -14.2227343166       -0.0914418315        8.8497238181
 H       -14.6050549836        1.2304124516        7.6660807575
 H       -13.1307700825        0.2933941801        7.4565509043
 Na       -7.4561570135        5.4414049902       -1.5053578359
