117

 C       -14.4346964926       -2.7967154978        8.4255635893
 C       -14.5357173147       -2.2266418880        7.0087639968
 O       -14.2476047753       -2.9554602383        6.0812165549
 C       -15.0790483873       -0.7999009061        6.8332489204
 C       -15.0023190396       -0.1837683997        5.4102974141
 O       -15.9962503745        0.0726983181        4.7756326132
 C       -13.6222718175        0.2088042331        4.7944683962
 C       -13.8780919243        0.9712137712        3.4329645526
 C       -12.6654875847        0.9891684743        2.5108400531
 O       -11.5184042668        0.7318212344        2.8813224884
 C       -12.8390464130        1.3146570190        0.9531631471
 C       -12.4800135856        2.8841052847        0.9114529133
 O       -13.4495033036        3.6856376069        0.8325522505
 C       -11.1105275839        3.4347084303        1.1169127525
 C       -11.1369838339        4.9023169473        1.1779409684
 C        -9.7723673234        5.5552746516        0.8131915646
 O        -8.8974959427        4.9788947115        0.2347645771
 C        -9.6583976208        7.1160580678        1.1105570429
 C        -9.8988327120        7.6831935152       -0.3558004942
 O        -9.0788780528        7.4131687904       -1.2363855233
 C       -11.2502810361        8.2227804816       -0.8099896663
 C       -11.2745862795        8.2604687348       -2.3494683693
 C       -11.0677811841        6.8495619147       -2.8508424441
 O       -11.4685875872        5.9138172291       -2.1895247295
 C       -10.4075296389        6.4945385320       -4.2760558466
 C        -9.3687133138        5.3016805312       -3.9927044143
 O        -8.2120842958        5.5204750937       -3.7903786859
 C        -9.9128810826        3.8772927201       -3.9752036260
 C        -8.8058073061        2.8763609649       -4.3803647650
 C        -7.9732171995        2.3388577071       -3.2304535265
 O        -8.1039497890        2.8003891695       -2.0796215611
 C        -6.7143877044        1.4420951338       -3.7091422693
 C        -5.4784252378        2.4090169014       -3.8209179731
 O        -5.5567487582        3.3438363336       -4.6106846765
 C        -4.2766364411        2.1754432634       -2.8990762526
 C        -3.5494562113        3.5157745295       -2.7709166189
 C        -4.5609931103        4.6369475105       -2.2856283622
 O        -5.6120988899        4.2184962337       -1.8006240745
 C        -4.2664132941        6.1765862463       -2.3142186251
 C        -4.5003812292        6.6793331454       -0.8799172696
 O        -5.6912693126        6.6691413139       -0.4821178569
 C        -3.3518108362        7.2273888204       -0.0776692908
 C        -2.7786572170        6.4498240515       -2.8181323333
 C        -5.1844161094        6.8226943741       -3.4615744853
 C        -6.6034314776        0.3774088008       -2.6344804976
 C        -7.0207277610        0.8025229683       -5.0476682008
 C       -11.4825739112        6.1536644181       -5.2394111863
 C        -9.5644862130        7.7050304560       -4.7812023018
 C       -10.6954745956        7.6215975484        2.1713335870
 C        -8.2482297799        7.4799411452        1.6246332916
 C       -11.7687207382        0.5013752237        0.1935966915
 C       -14.2370434388        0.9784259477        0.3195341133
 C       -16.5395898946       -0.8457400713        7.2252820958
 C       -14.2871019552        0.0486955578        7.8146504087
 H       -15.1694407325       -3.5717556303        8.5485022546
 H       -14.5939160942       -2.1162809660        9.2547127208
 H       -13.4877964049       -3.3063991777        8.5734548569
 H       -13.2175905503       -0.7668514082        4.4128637123
 H       -12.8602647058        0.6926006392        5.4492516056
 H       -14.1057084400        2.0057142711        3.6831665482
 H       -14.6710196329        0.5563299751        2.9553792389
 H       -10.4474383341        3.0048468030        0.3441072095
 H       -10.6630088650        3.0435222564        2.0187892238
 H       -11.5584965583        5.2703231184        2.1738620978
 H       -11.8156457969        5.3045372763        0.4373945610
 H       -11.3576916964        9.2442310765       -0.4114967842
 H       -12.0662651546        7.5779661483       -0.4752048105
 H       -10.4959748560        8.8350769035       -2.7851073187
 H       -12.2628173183        8.6249568891       -2.6964449796
 H       -10.6474335480        3.7817928834       -4.7992138064
 H       -10.3406173772        3.6040124323       -3.0164893963
 H        -8.0622020252        3.4025396861       -4.9893842084
 H        -9.2208665440        1.9987267403       -4.9183219910
 H        -3.7668682065        1.4844890059       -3.5943376779
 H        -4.3940431429        1.6165963086       -2.0004082644
 H        -3.1494568617        3.7726187228       -3.7138785683
 H        -2.7312627324        3.3705366378       -2.0654705428
 H        -2.4438083259        6.5603672341       -0.0221327823
 H        -3.5549430152        7.4359877771        0.9164092191
 H        -3.1887327349        8.2196833792       -0.4271319604
 H        -2.7252083830        7.5080384078       -2.9959275804
 H        -2.4805141977        5.8908497968       -3.6882351852
 H        -1.9862828068        6.2081650746       -2.1447447172
 H        -5.0293521933        7.8641439982       -3.4361391926
 H        -6.1903536329        6.5316685465       -3.2993042581
 H        -4.8488911846        6.4534608090       -4.4150571482
 H        -7.6014264117       -0.1111747122       -2.6531291079
 H        -6.4298057733        0.8393078600       -1.6907830247
 H        -5.8635039935       -0.3600919393       -2.9431360040
 H        -6.4276172574       -0.0904774206       -5.2333271145
 H        -6.8452067157        1.4804551786       -5.8878552982
 H        -8.0043931511        0.4903827792       -5.1184267844
 H       -12.3346272799        5.6283203528       -4.7275975870
 H       -11.2934076181        5.4938080512       -6.0873923678
 H       -11.8328041956        7.1150216627       -5.6423726958
 H        -8.7076994470        7.9274816636       -4.1047561098
 H       -10.1833012547        8.5314818409       -4.9708874465
 H        -9.0804619522        7.5587790679       -5.7505982772
 H       -10.4364591541        8.6356293159        2.4723281151
 H       -10.4921381663        7.0129369267        3.0021857131
 H       -11.8074915338        7.6232581109        2.0207873560
 H        -8.1598328504        8.5690854261        1.6695018371
 H        -7.5662030350        6.9971553083        0.8845295803
 H        -8.0020414590        6.9021631111        2.5241387629
 H       -10.8152143266        0.8760464567        0.3953742045
 H       -11.8680083333        0.6616101474       -0.9204546696
 H       -11.9291335528       -0.5508188873        0.3949352668
 H       -14.1962899847        0.7893122647       -0.7006780300
 H       -14.9535814743        1.7482777628        0.5130171789
 H       -14.6010545765        0.0494900823        0.6959967550
 H       -16.8897389806        0.1399296669        7.4950288603
 H       -16.7139277244       -1.6158835411        8.0267130169
 H       -17.0664545997       -1.1854315459        6.3197430044
 H       -14.1741355793       -0.5261644480        8.7057188182
 H       -14.7996609130        0.9613290261        8.0744036941
 H       -13.2770312666        0.3684921409        7.4609625831
 Na       -7.4521619562        5.4086376293       -1.5143022136
