117

 C       -13.2596371726       -2.1770268354        8.4191376757
 C       -13.8013344244       -1.5390171779        7.0829772282
 O       -13.6935023437       -2.0873121714        6.0271456854
 C       -14.7108516337       -0.0865779348        7.1455411573
 C       -14.9865212340        0.0990125817        5.5439228089
 O       -16.1115355634       -0.0579402295        5.0712423923
 C       -13.8000687400        0.6814461857        4.7423991461
 C       -14.0241171672        0.4901050195        3.1744850491
 C       -12.8815051258        1.0324823173        2.4059254538
 O       -11.8639614059        1.3615684090        2.9526614954
 C       -12.8614801682        1.0862373563        0.8060864504
 C       -12.7612575880        2.6804743597        0.5381688085
 O       -13.7490739175        3.3301610811        0.4903145177
 C       -11.2839551783        3.2822574136        0.5281432505
 C       -11.2672479370        4.8207293016        0.5655105687
 C        -9.8971551702        5.4314108059        0.2948439875
 O        -9.0173631447        4.6912692748       -0.1016426380
 C        -9.6938609189        6.9626292809        0.5214798575
 C        -9.6363153608        7.6857065085       -0.8852382328
 O        -8.6612474772        7.5358829801       -1.6282440606
 C       -10.6571477713        8.7219605724       -1.2232823018
 C       -10.9680130777        8.6000392849       -2.7228183064
 C       -11.4270514287        7.1540764090       -3.0488586614
 O       -12.0332160566        6.5099937734       -2.2013111441
 C       -11.0648324524        6.5351830251       -4.4341486120
 C        -9.8484632229        5.5657196148       -4.0758536539
 O        -8.7441506928        5.9981541907       -4.0108334735
 C       -10.0664990579        4.0485601243       -3.9169542042
 C        -8.8990325468        3.1283420565       -4.4555401967
 C        -8.0216396376        2.5037574767       -3.2999733078
 O        -7.7893938025        3.2090083588       -2.3209298898
 C        -7.1675268412        1.0788759737       -3.3997793119
 C        -5.6743311436        1.7417447133       -3.4952069836
 O        -5.3618351266        2.1205069478       -4.5752438886
 C        -4.8480051730        1.9207677365       -2.2332317981
 C        -3.8913115237        3.0865450845       -2.3296605986
 C        -4.4038706822        4.3542772695       -1.5613403061
 O        -5.3744324613        4.2379909665       -0.8989607212
 C        -3.4270244917        5.6492044914       -1.6247191776
 C        -4.3169891568        6.6861815136       -0.8682069008
 O        -5.4886610230        6.8532565576       -1.1698814734
 C        -3.7963183456        7.4502127511        0.3758712797
 C        -2.0643167581        5.3036427695       -0.8742427763
 C        -3.1452125448        6.0339022478       -3.1090497956
 C        -7.5469084317        0.3422725900       -2.0787296562
 C        -7.4761022049        0.2882821460       -4.6402091746
 C       -12.3623925630        5.8530295066       -5.0302526881
 C       -10.6300120912        7.6709989152       -5.4300597000
 C       -10.7273835197        7.6173569626        1.4288206149
 C        -8.2991759837        7.0183543130        1.2820951475
 C       -11.6324226193        0.3276795608        0.1638027546
 C       -14.0702134123        0.3845262097        0.2213474299
 C       -16.0944541040       -0.2476222114        7.8350823533
 C       -13.9714463838        1.1224034644        7.7107001382
 H       -13.0812471711       -1.4615775509        9.1153469006
 H       -12.3382760103       -2.7622970742        8.2899457051
 H       -13.9588538499       -2.9151260257        8.7931260642
 H       -12.9275821405        0.1364260968        5.1449561498
 H       -13.5168764046        1.7416311446        4.9444829825
 H       -15.1292780239        0.7983890454        2.9283865911
 H       -14.0786389194       -0.6217773284        2.9723309516
 H       -10.7360585612        2.9803084961       -0.3774192030
 H       -10.8405008673        2.9046309074        1.4633721400
 H       -11.6131690490        5.0909570900        1.5435391004
 H       -11.9375749892        5.1836843782       -0.1638130146
 H       -10.2345536455        9.6990747249       -0.9936220879
 H       -11.5883829493        8.5904263647       -0.6440598064
 H       -10.2372119881        8.9889032305       -3.3738169302
 H       -11.8933802396        9.1490894377       -3.0036313337
 H       -11.0323924181        3.6873733489       -4.3569706710
 H       -10.2194338283        3.9020859448       -2.8681637220
 H        -8.1457939300        3.6458774491       -5.0418856718
 H        -9.2559465736        2.3687925402       -5.1541501846
 H        -4.2099187221        0.9843889578       -2.1807526718
 H        -5.5004194760        1.9679034434       -1.3592431915
 H        -3.7256595609        3.1896777995       -3.3987480032
 H        -2.8810267158        2.7185385286       -1.9982795027
 H        -2.7966817292        7.1499929037        0.8327192696
 H        -4.6028863593        7.4731513913        1.0499809301
 H        -3.3938873764        8.3663961039       -0.0083909935
 H        -1.3480561376        6.0832060330       -0.9566724332
 H        -1.5755433377        4.4054402029       -1.1985523251
 H        -2.2238929412        5.1516733161        0.1802854343
 H        -2.5533784979        6.9005067146       -3.1031572483
 H        -4.1143426708        6.2883036487       -3.4568181218
 H        -2.7082940610        5.2311703134       -3.6802503210
 H        -8.6424398458        0.1415731198       -2.0738948951
 H        -7.3127969096        0.8413814017       -1.1560539538
 H        -7.0360750321       -0.6144895402       -2.0207153873
 H        -7.3493013175       -0.7797105579       -4.4531260213
 H        -6.8307697682        0.5047102936       -5.4797069458
 H        -8.4591793333        0.3106195466       -4.9876716809
 H       -12.9571480803        5.1946540229       -4.3284054706
 H       -12.0261958084        5.2701890572       -5.9003720412
 H       -13.0879109105        6.6271926523       -5.3507543311
 H        -9.5997537121        7.9928310336       -5.1164884635
 H       -11.3299658535        8.4554803862       -5.3739366820
 H       -10.5781186672        7.2867676553       -6.4573346295
 H       -10.4529308991        8.6713355020        1.4345435642
 H       -10.6625685004        7.1657312541        2.3674024905
 H       -11.7398594725        7.4579183484        0.9702969158
 H        -7.9514756491        7.9611459150        1.7068209447
 H        -7.5065556815        6.8257591362        0.5015631237
 H        -8.4220741429        6.2684101798        2.0565173586
 H       -10.7001767151        0.4713332116        0.6225351943
 H       -11.5704019194        0.6147588924       -0.9308381208
 H       -11.7303574273       -0.7557229958        0.2091367528
 H       -14.1041509596        0.5621218021       -0.8117118307
 H       -15.0212255337        0.6745533833        0.5990533531
 H       -13.9520933512       -0.6830224006        0.3950708908
 H       -16.7784638440        0.4902813456        7.4246809978
 H       -16.0794042472       -0.1620357785        8.9565323795
 H       -16.5783603760       -1.2000755836        7.5565118283
 H       -14.0832869068        1.1214352137        8.7643067868
 H       -14.4668618210        2.0040691585        7.3185890190
 H       -12.9260800440        1.2032096003        7.3557306065
 Na       -7.4398239063        5.3699975448       -1.7284662844
