117

 C       -13.8527162972       -2.4718696800        8.2307054286
 C       -14.2361355614       -1.7881718523        6.9067517851
 O       -13.7851802785       -2.3325797516        5.9227426742
 C       -14.9754076095       -0.3940907236        6.8807554888
 C       -15.0656874424        0.0203351267        5.3881842859
 O       -16.1713045464        0.1095659215        4.8832745612
 C       -13.7449871543        0.1302600650        4.6743888361
 C       -13.9586841812        0.5529591426        3.2033163238
 C       -12.7429116854        1.0017221944        2.5176121758
 O       -11.7377578470        1.2021947737        3.1316762172
 C       -12.7495317610        1.2449752117        0.9515908903
 C       -12.7243465758        2.8142381913        0.7274606781
 O       -13.6734069170        3.4877696036        0.7566319626
 C       -11.2006014360        3.4377151695        0.5227636071
 C       -11.0719694344        4.7734659593        1.1714399722
 C        -9.8160027826        5.5133246147        0.6985520264
 O        -8.9975974240        4.9059659759        0.0183098738
 C        -9.6595590381        7.0286861672        0.9417726847
 C        -9.6555251364        7.6074597427       -0.5140864518
 O        -8.6249501128        7.7083799987       -1.1336976406
 C       -10.9033087310        8.3403460794       -0.9703942573
 C       -11.0256575311        8.3439741245       -2.4970115392
 C       -11.2561079806        6.8862457489       -2.9577845304
 O       -11.7093804314        6.0666795409       -2.1754147196
 C       -10.7602740840        6.4851083141       -4.3856124690
 C        -9.7302516182        5.2818946801       -4.0906188535
 O        -8.5700831369        5.6290801247       -3.8480856739
 C       -10.2444563493        3.8490264573       -3.8769497701
 C        -9.1869914484        2.7420577507       -4.3946404186
 C        -7.9878763546        2.5299087971       -3.3676595717
 O        -7.8363318484        3.1773311766       -2.3754530590
 C        -6.9667757485        1.4086300710       -3.6129803160
 C        -5.5104069917        2.0880949234       -3.8388900038
 O        -5.2876941227        2.6634891122       -4.8737780070
 C        -4.4194216197        1.9719201621       -2.7234194593
 C        -3.6929331333        3.3493792167       -2.5657200974
 C        -4.5318447295        4.3884401970       -1.9739119244
 O        -5.6147889710        4.2377974585       -1.4584477755
 C        -3.8474575122        5.9096677990       -1.9551226906
 C        -4.5700180448        6.7305954908       -0.7432822237
 O        -5.7322698186        6.9180386816       -0.8262385240
 C        -3.6390039706        7.4042532597        0.2832260005
 C        -2.3647085664        5.8736331664       -1.7745966488
 C        -4.2216303751        6.4868508392       -3.3257247071
 C        -7.0431245957        0.4964772253       -2.2699271014
 C        -7.2599781237        0.4593502885       -4.8400682621
 C       -11.9756040514        5.9739158970       -5.2668708648
 C        -9.9360869814        7.5444524323       -5.1700672132
 C       -10.7075451957        7.6281396248        1.9194167327
 C        -8.2492187951        7.1618971999        1.6202307207
 C       -11.4720699493        0.5391639555        0.3973266711
 C       -14.1128032521        0.7079194958        0.3213260600
 C       -16.3348709962       -0.5691614524        7.5649866275
 C       -14.0113228358        0.5357998443        7.6720380865
 H       -14.5847212485       -2.2693556500        8.9916021076
 H       -12.8649793407       -2.1410090253        8.5955371677
 H       -13.8507379901       -3.5477061764        8.1868248157
 H       -13.2556706063       -0.8915825115        4.6741087102
 H       -13.0332000375        0.8156014976        5.1907274741
 H       -14.7252335457        1.1671426048        3.0660487108
 H       -14.3297411757       -0.2785585450        2.5980200604
 H       -11.0043334553        3.5490722327       -0.5615690364
 H       -10.4557378208        2.7134446995        0.8754724727
 H       -11.0293757397        4.5923359714        2.2700263728
 H       -11.9676569341        5.3767067975        0.9306786299
 H       -10.8468046955        9.4081828703       -0.6281703570
 H       -11.7459520452        7.8717389844       -0.5063156682
 H       -10.2099069945        8.8341154351       -3.0062334995
 H       -11.8207116861        8.8989399650       -2.8971926810
 H       -11.2096910667        3.6908785504       -4.3128162734
 H       -10.2445521729        3.7723638592       -2.7553707962
 H        -8.7458079457        2.9740675440       -5.3792756680
 H        -9.6585505443        1.7570257015       -4.4520390506
 H        -3.6998124100        1.1439394527       -2.9302186486
 H        -4.9334826233        1.7606981990       -1.8199363073
 H        -3.3458527407        3.6483639533       -3.5651233682
 H        -2.8238921545        3.2588728646       -1.9677793245
 H        -3.5181021754        6.8515644989        1.1749065678
 H        -4.2051735550        8.2899471135        0.6835606061
 H        -2.6382673177        7.6383088257       -0.0644725662
 H        -1.7905762818        6.7402840999       -1.9802056815
 H        -1.9672594387        5.2316144933       -2.5114209097
 H        -2.0680108252        5.5788009699       -0.7803249660
 H        -3.5206040957        7.2482946322       -3.5610235153
 H        -5.2451748091        6.8138126554       -3.3531159564
 H        -4.0688774843        5.6929783177       -4.0121506167
 H        -8.0388395679        0.2490910411       -1.9714626006
 H        -6.5798499221        1.1405820873       -1.5080423658
 H        -6.4573668153       -0.4240758470       -2.3557658495
 H        -6.9210359189       -0.5191674867       -4.6496679782
 H        -6.7557943561        0.7551731604       -5.7203013780
 H        -8.3179955094        0.3930157651       -5.1786102779
 H       -12.7010190947        5.3656165256       -4.6918495362
 H       -11.6382792399        5.3524673223       -6.1486957439
 H       -12.5464120221        6.8052837794       -5.7727453083
 H        -9.0041780690        7.6744164874       -4.6991118389
 H       -10.3001526493        8.5781051645       -5.2412086052
 H        -9.7949891048        7.0602317757       -6.1504290069
 H       -10.3675292724        8.6271142900        2.1883429135
 H       -10.7958782861        7.0009100014        2.8282251213
 H       -11.6460368042        7.6446582793        1.4177441890
 H        -8.0521442245        8.2556205471        1.7045027912
 H        -7.4705512037        6.5759083063        1.0841738389
 H        -8.3064025203        6.8406230641        2.6935567889
 H       -10.6241914818        0.6124340182        1.1354527268
 H       -11.1275464284        0.8703405817       -0.5591021537
 H       -11.7127655109       -0.5581097364        0.2612564509
 H       -14.1782869569        0.9514941405       -0.7598832734
 H       -14.9464762533        1.1274254878        0.7991649434
 H       -14.2472572070       -0.3486354431        0.3893599812
 H       -17.0130298121        0.3325776012        7.4434985029
 H       -16.2235358005       -0.7141995606        8.6343372104
 H       -16.7996069852       -1.4758691667        7.1438537153
 H       -14.2914587329        0.7260916387        8.7143910430
 H       -14.0006728866        1.4912320097        7.1916050333
 H       -13.0476496466        0.0667454662        7.6889552948
 Na       -7.5599614274        5.5271114199       -1.6284463547
