117

 C       -13.2354665456       -1.7482862774        8.3982103537
 C       -13.8093370854       -1.3623734496        7.0603928745
 O       -13.5514760889       -1.8286934835        5.9630297074
 C       -14.7340650276       -0.0449326159        7.0752645962
 C       -14.9265591169        0.1466824347        5.5299879950
 O       -15.9681425737       -0.1193342017        4.9835067909
 C       -13.6948426345        0.5806950147        4.7287154056
 C       -13.8865463975        0.5816941773        3.2536569936
 C       -12.7064990250        0.9451252433        2.4482356785
 O       -11.6328010047        1.2133065539        3.0219800231
 C       -12.8950944825        1.1036008174        0.9811153293
 C       -12.7780375808        2.6770454482        0.5129492480
 O       -13.7931500004        3.2855677511        0.0655043962
 C       -11.3446919687        3.2328153181        0.6175179984
 C       -11.4214355014        4.7772586894        0.3774342541
 C       -10.0321725720        5.3278023467        0.1777317294
 O        -9.1207281898        4.6719102736       -0.3110146432
 C        -9.7434067427        6.8965024880        0.4005718058
 C        -9.5885675273        7.6083241405       -0.9313208738
 O        -8.6008158845        7.5328418703       -1.6102205928
 C       -10.5465777016        8.7813701496       -1.3467304391
 C       -11.0599109430        8.6387695084       -2.7388962319
 C       -11.4251748393        7.1699362561       -3.0189704389
 O       -12.0148287985        6.4825232107       -2.2240375123
 C       -11.0603548285        6.5875930907       -4.4873567595
 C        -9.8958743763        5.6311523583       -4.1205189974
 O        -8.7742054234        6.0857278415       -3.8585947405
 C        -9.9659470938        4.1329885890       -3.9226477251
 C        -8.7742107342        3.2827395398       -4.4248250095
 C        -7.9405506829        2.5757597790       -3.2191180041
 O        -7.8399491739        3.1376881287       -2.1607306128
 C        -7.2708442810        1.1828617217       -3.3896718230
 C        -5.8218755822        1.6467269393       -3.4014970297
 O        -5.3240049559        2.0086870762       -4.4608707693
 C        -5.0788431226        1.7379239507       -2.0524123935
 C        -3.9516179363        2.8349443548       -2.1768862058
 C        -4.3497432756        4.1479912875       -1.5940387216
 O        -5.3864770251        4.1393267142       -0.8579764487
 C        -3.4238211137        5.4664318439       -1.5060607842
 C        -4.3205996677        6.6439269812       -0.8296139061
 O        -5.4831250005        6.8653289731       -1.2124882410
 C        -3.7258045304        7.5935435453        0.1196133112
 C        -2.1782160917        5.1440620589       -0.6353128077
 C        -2.9996808756        6.0224736036       -2.8947599149
 C        -7.6237514259        0.2894678764       -2.1451058433
 C        -7.6489276048        0.3194805456       -4.7226956180
 C       -12.2743120944        5.7094608783       -4.9037350909
 C       -10.6352795066        7.5549352238       -5.6139612054
 C       -10.8509172255        7.4730028092        1.2912707039
 C        -8.3681191716        7.0629301698        1.1284480980
 C       -11.7388776811        0.3344818803        0.4065028269
 C       -14.3141851873        0.7083449729        0.4774937453
 C       -16.0503524743       -0.2925820920        7.8274110640
 C       -13.7949260981        1.1738197640        7.7146644165
 H       -12.5517562736       -0.8964805903        8.7831275937
 H       -12.6010374734       -2.6017461473        8.3582814800
 H       -14.0256556470       -2.0104776969        9.1083230396
 H       -12.7566132376        0.0974333782        4.9424398048
 H       -13.4669791738        1.6021257850        5.0305592008
 H       -14.7159940854        1.1917290742        3.0333179773
 H       -14.2403159976       -0.4140623706        3.0883315528
 H       -10.7691062376        2.7784694381       -0.1650121984
 H       -10.9855740353        3.0079282295        1.6108354285
 H       -12.0173983483        5.2314475622        1.1800205225
 H       -11.9220042965        4.9705908745       -0.6323134763
 H        -9.9576959488        9.7034184063       -1.3937096363
 H       -11.3212339838        8.9319814406       -0.6009932812
 H       -10.1759389750        8.9586617288       -3.4114744111
 H       -11.9249520723        9.2689358843       -3.0521584165
 H       -10.9037043198        3.7615709170       -4.2578552640
 H       -10.0947349198        4.0106893479       -2.8083898445
 H        -8.0922457058        3.9232851217       -5.0241844554
 H        -9.0715015243        2.4747111445       -5.1126305937
 H        -4.5914420615        0.8671017154       -1.7245064496
 H        -5.8511711257        2.0579962035       -1.3146759285
 H        -3.4793259353        2.7512859061       -3.1853609811
 H        -3.1381651420        2.5235558341       -1.5374730801
 H        -2.9441332302        7.1349956516        0.6918721916
 H        -4.5760400551        7.9651205448        0.6965756667
 H        -3.0597768576        8.2650440177       -0.4251330605
 H        -1.7045263148        6.1074912374       -0.3689994435
 H        -1.4331460693        4.4776513893       -1.1030432820
 H        -2.3444646496        4.5256723320        0.2413265076
 H        -2.3755572284        6.9273294100       -2.7164126457
 H        -3.9078418734        6.2415337506       -3.4664027677
 H        -2.4391876088        5.2239471856       -3.3704479685
 H        -8.5465832780       -0.2287637000       -2.3604349259
 H        -7.8105153628        0.8412183946       -1.1786652334
 H        -6.8371750149       -0.4353857472       -1.8948235626
 H        -7.5043033821       -0.7486806093       -4.6528840044
 H        -7.1674162200        0.6240092632       -5.6443333750
 H        -8.7465746225        0.3389757525       -4.9109564271
 H       -12.4873174893        5.0801370058       -4.0812822346
 H       -12.0506923613        5.0733952982       -5.7452451720
 H       -13.1429168583        6.3003943981       -5.0996696375
 H        -9.6266484596        7.8245497748       -5.3972187348
 H       -11.4229723049        8.3548818146       -5.7438065334
 H       -10.5697792090        7.0195810911       -6.5396971956
 H       -10.6690894340        8.5153655609        1.5060923873
 H       -10.9143470790        6.7590768973        2.1640434885
 H       -11.7183185190        7.3732224567        0.7102643571
 H        -8.1705465540        8.1207212111        1.0237385021
 H        -7.5076835776        6.6772154720        0.6923396072
 H        -8.5161202204        6.8438554356        2.1816389218
 H       -10.7132934453        0.7784163658        0.6598892285
 H       -11.7684397353        0.3165430325       -0.6496972179
 H       -11.7538932094       -0.7131977201        0.7292130296
 H       -14.3048066806        0.5736268243       -0.6390351363
 H       -15.0141950086        1.5449571952        0.7397876607
 H       -14.6805693002       -0.2699180555        0.8023145384
 H       -16.7083147408        0.5716648983        7.7800600153
 H       -15.8485443112       -0.5881382381        8.8249968661
 H       -16.6562924949       -1.0832084088        7.4012256582
 H       -13.8671338318        1.0541039653        8.8233626234
 H       -14.1098550102        2.1927142973        7.4093282201
 H       -12.7820137688        1.1133284636        7.3624970020
 Na       -7.4128508262        5.5026756083       -1.8036184747
