117

 C       -12.8126769369       -0.9628237498        8.9049941204
 C       -13.1386459431       -0.7791255546        7.4496939765
 O       -12.5045453164       -1.2464625307        6.5228640922
 C       -14.3230721495        0.2212222960        7.1309394043
 C       -14.6857315324        0.3484574070        5.6099395279
 O       -15.8390672120        0.4406312207        5.2195725515
 C       -13.5585237884        0.3572265603        4.5473525440
 C       -13.8856605691        1.2212830823        3.3802982007
 C       -12.7467761830        1.4802617466        2.4201122306
 O       -11.6789175385        2.0038638039        2.8550828479
 C       -12.9927559185        1.2184592836        0.8675907433
 C       -12.7303102320        2.5966824305        0.2104241781
 O       -13.6340101080        3.1562786330       -0.4588745573
 C       -11.4979380026        3.4525261103        0.3562311379
 C       -11.8498811464        4.9080370474        0.3700127047
 C       -10.5900219957        5.7432226192       -0.0623847572
 O        -9.9348745215        5.2334485282       -0.9246177659
 C       -10.2181432650        7.1541349757        0.5998743113
 C        -9.5607613667        7.9303873777       -0.6184395031
 O        -8.4253799789        7.6410348656       -0.9590490079
 C       -10.3790116222        8.8112137280       -1.5712637289
 C       -10.3050315031        8.4285577232       -3.0526796841
 C       -11.1638027008        7.1801236561       -3.3008158602
 O       -12.0274344246        6.8603530930       -2.5409448340
 C       -10.8873660608        6.3259451596       -4.5600694490
 C        -9.6470963456        5.4848790790       -4.1454620462
 O        -8.6568825993        6.0635079209       -3.7850757557
 C        -9.8190645135        3.9444928360       -4.3398952061
 C        -8.3641123007        3.3330174628       -4.5762108401
 C        -7.9457986938        2.4723873511       -3.3611061237
 O        -8.3110025731        2.8623942579       -2.2677531318
 C        -7.1263616485        1.0389688133       -3.5072100376
 C        -5.6435354972        1.2080150082       -3.1046108752
 O        -4.7332362772        1.3278782020       -3.8706713051
 C        -5.4257460370        1.2767530672       -1.5680551224
 C        -4.2514262675        2.2465092766       -1.1258203611
 C        -4.6831977643        3.7022736907       -1.1370076498
 O        -5.8657542235        3.9110462459       -0.9033891139
 C        -3.6746939314        4.9048010276       -1.1749077309
 C        -4.3417013675        6.2831183354       -1.4974682572
 O        -5.4936749060        6.3962994240       -1.8538061486
 C        -3.3792195516        7.4656292153       -1.4457219898
 C        -3.1757030798        5.0038258721        0.3018091501
 C        -2.5408237056        4.6480049033       -2.1329242813
 C        -7.9976346062        0.0506285536       -2.6527091085
 C        -7.2439480200        0.6087811765       -4.9844698325
 C       -12.1738082304        5.6221226034       -4.9824853720
 C       -10.4526359335        7.2012006843       -5.7200847667
 C       -11.5331557525        7.7836774363        1.2071277403
 C        -9.1443449450        6.8943216153        1.6797795089
 C       -12.0464298571        0.1885576147        0.3048337420
 C       -14.4452465734        0.8121673706        0.5754698406
 C       -15.5850545058       -0.1372580983        7.9085742820
 C       -13.7417108711        1.6482257776        7.5280007168
 H       -12.5573960552       -2.0672104286        9.1542812555
 H       -13.6776272266       -0.7477631670        9.4897630820
 H       -11.9705086788       -0.3521645844        9.2325043512
 H       -13.5744612126       -0.7056539370        4.2379202299
 H       -12.6059809892        0.6558222185        4.8944738488
 H       -14.1345701712        2.1456242773        3.7500784810
 H       -14.8696947430        0.8172787241        2.9749734803
 H       -10.8771963861        3.3789446031       -0.5114904938
 H       -10.8366795747        3.1669759036        1.1487340124
 H       -12.4062603362        5.2633413756        1.3011871287
 H       -12.6382543260        4.9605384316       -0.4031453272
 H        -9.9879936915        9.8681310551       -1.4835929575
 H       -11.3922358319        8.9255284686       -1.2617919220
 H        -9.2377015564        8.1887794327       -3.2653208441
 H       -10.6840664623        9.3313129432       -3.5839197900
 H       -10.4750856993        3.7816020412       -5.2185925862
 H       -10.3744213718        3.5415680539       -3.4860734084
 H        -7.6321947727        4.1769433401       -4.6283092229
 H        -8.2087630608        2.7191022884       -5.4656242084
 H        -5.2027158460        0.2513683257       -1.1106137010
 H        -6.2648074625        1.6220916597       -1.0679407661
 H        -3.3442197486        2.0778945601       -1.6713928725
 H        -4.0432125236        2.0048067480       -0.0512797618
 H        -3.6168605890        7.9924402599       -0.5768034742
 H        -3.5138834585        8.1649940058       -2.3221341387
 H        -2.3448202597        7.2134575958       -1.7156282020
 H        -2.6470252917        5.8972812688        0.5967145390
 H        -2.4489799387        4.2048800436        0.3429613124
 H        -3.9478569984        4.8728485891        1.0658358189
 H        -1.9745727833        5.5464225463       -2.2353723755
 H        -2.8990506088        4.3962304137       -3.1250038518
 H        -1.9167409796        3.8798076609       -1.7281873499
 H        -9.0393186595       -0.0574789855       -2.8525414612
 H        -7.9832815878        0.3160957315       -1.5824519909
 H        -7.6106642440       -0.9736798524       -2.6476614352
 H        -6.8841005315       -0.3826488738       -5.1528635304
 H        -6.6467402318        1.3026389414       -5.5377907972
 H        -8.2931430047        0.7122181189       -5.3773235456
 H       -12.4004868258        4.8729104085       -4.2471981049
 H       -12.0979340743        5.2432864281       -6.0091377098
 H       -13.0245451885        6.3246772558       -4.9088417027
 H        -9.6604453787        7.7876785692       -5.4201887088
 H       -11.2159435311        7.9335322668       -5.9826161279
 H       -10.2468012923        6.4939634269       -6.5427165783
 H       -11.2965890781        8.8373462165        1.4838392379
 H       -11.8692627705        7.2573905707        2.1295765827
 H       -12.3612537809        7.7981635047        0.5052647497
 H        -8.8861983075        7.7721386884        2.2739851954
 H        -8.2466326696        6.4566468448        1.2600384028
 H        -9.3865456213        6.1440328845        2.4357430906
 H       -10.9790484804        0.2285573002        0.5679124618
 H       -12.2104685749        0.1471909846       -0.7326946447
 H       -12.2927466076       -0.7752444554        0.7467318266
 H       -14.5396784369        0.7035040273       -0.5198326883
 H       -15.1321761324        1.5775229095        0.8594884513
 H       -14.6618851348       -0.0372580651        1.1550057234
 H       -16.4302002842        0.6002342650        7.8999795543
 H       -15.3979802044       -0.2069087715        8.9692846642
 H       -16.0128085535       -1.0815814170        7.5550142321
 H       -13.3061232469        1.6642470007        8.5386549846
 H       -14.4949191777        2.4136519132        7.5255515777
 H       -12.9578927370        1.8993711862        6.7866602181
 Na       -7.6501407083        5.3034055345       -1.7855287223
