117

 C       -12.9332642051       -1.3602253114        8.8693783292
 C       -13.4340288966       -1.0422630337        7.4940508454
 O       -13.1799131986       -1.8111768098        6.5608970683
 C       -14.4413762727        0.1337826238        7.2437489227
 C       -14.5803231749        0.3521858502        5.6627512781
 O       -15.7090630590        0.2723196951        5.2598372340
 C       -13.3920363581        0.8273352017        4.7944172442
 C       -13.9374109581        1.1473791900        3.3138704270
 C       -12.8736480248        1.3841518772        2.2889303377
 O       -11.6958207114        1.3681387415        2.6790305486
 C       -13.0300435737        1.3199842032        0.7228882091
 C       -12.7298916727        2.6711417626        0.0245785314
 O       -13.4781194849        3.1220579865       -0.8423225396
 C       -11.4508812845        3.4222749262        0.3410985256
 C       -11.5823255306        4.8363391074        0.7032336938
 C       -10.3930534898        5.6550226631        0.0773614715
 O        -9.8088832886        5.1502439486       -0.8562159913
 C       -10.0394473190        7.0874229742        0.5097922041
 C        -9.5527512931        7.9206934376       -0.8092461341
 O        -8.3703512025        7.9059352491       -1.2139150832
 C       -10.5403292917        8.8158822945       -1.5211445511
 C       -10.7088573081        8.5005150362       -3.0363680210
 C       -11.4199253008        7.2058677093       -3.2315322634
 O       -12.1222770991        6.7181739751       -2.3465797681
 C       -11.0448845654        6.4468133179       -4.6121094649
 C        -9.6554465534        5.6461005585       -4.2551339687
 O        -8.6204141056        6.2513082425       -4.0550986633
 C        -9.7429416199        4.1118435175       -3.9426059989
 C        -8.4076903525        3.2776560260       -4.3725913228
 C        -7.8530713296        2.4252716450       -3.2833419451
 O        -7.8021999025        2.9021581378       -2.1258011039
 C        -7.2733472754        0.9399305951       -3.4854510562
 C        -5.7419936309        1.3578759730       -3.1327984928
 O        -5.0551639695        1.5775396282       -4.1272520479
 C        -5.1936239986        1.4005874433       -1.7339538860
 C        -4.0920229386        2.4785833966       -1.6661279787
 C        -4.5638862421        3.7982630266       -1.2101317276
 O        -5.7392127995        3.9987792363       -0.9477224475
 C        -3.6783137354        5.0715023895       -1.2334533965
 C        -4.3287027240        6.4034858217       -1.1358940937
 O        -5.5487237351        6.6152921837       -1.2999316994
 C        -3.4162160133        7.6008549803       -0.8297801357
 C        -2.7979008853        4.8135254347       -0.0360235020
 C        -2.7692688560        5.1439380040       -2.4845864870
 C        -7.8089101714       -0.1158363771       -2.4605215912
 C        -7.4701306472        0.4869887062       -4.9406596554
 C       -12.2205431095        5.5310824271       -4.9889389435
 C       -10.7472474162        7.4041705031       -5.7432987826
 C       -11.2381301667        7.6391349268        1.3019640160
 C        -8.7927801173        6.9581057132        1.4449035878
 C       -11.9350804108        0.2824802546        0.3188988345
 C       -14.3834055299        0.7079912256        0.2861712248
 C       -15.7478108851       -0.4160464549        7.8245623439
 C       -14.0050052161        1.3997737674        8.0218248925
 H       -11.9760259524       -1.9809841627        8.7504645507
 H       -13.5541822046       -2.1828459346        9.3049203801
 H       -12.8317194992       -0.5284581934        9.5990159739
 H       -12.6755629813        0.0145622620        4.6267619943
 H       -12.8608292595        1.6737424408        5.1521497014
 H       -14.6001531494        1.9526250372        3.4902569056
 H       -14.5217634858        0.1914096132        2.9802245069
 H       -10.7545320085        3.3323002272       -0.5054584773
 H       -10.8708494842        3.0733037092        1.2048554098
 H       -11.6840811545        4.8856530402        1.8461473335
 H       -12.5236799544        5.3259864271        0.3412502226
 H       -10.0024418899        9.8098477951       -1.4293967624
 H       -11.4439402811        8.9191434830       -0.9439205783
 H        -9.7077207225        8.3915422900       -3.3924882855
 H       -11.2759206220        9.2620648602       -3.5376816826
 H       -10.7003601503        3.5557151448       -4.1323207444
 H        -9.7719859004        4.1724043756       -2.8372306322
 H        -7.5432941416        3.9756508408       -4.5044120689
 H        -8.5357231034        2.6358674373       -5.2653422779
 H        -4.7782622734        0.3398841974       -1.4914971236
 H        -5.9513862814        1.6523131633       -1.0571982056
 H        -3.7249883222        2.6025977614       -2.6554486930
 H        -3.1803491188        2.1671718696       -1.1384760153
 H        -3.6509262342        7.9634528940        0.1313049706
 H        -3.5501193244        8.4041775984       -1.6589580774
 H        -2.3135087501        7.4180559331       -0.9327447740
 H        -1.7412897317        5.1394763952       -0.0169414467
 H        -2.6519825851        3.7161431671        0.0546799883
 H        -3.2830119710        5.1863264660        0.9191306010
 H        -2.3233373462        6.1379148239       -2.4196464437
 H        -3.5101285160        5.1559937544       -3.3254463050
 H        -1.9474293897        4.4087988905       -2.5889655617
 H        -8.7853133612       -0.5004579816       -2.7778956868
 H        -7.9762382554        0.1623073477       -1.4247908364
 H        -7.2033666092       -1.0372086320       -2.4068271072
 H        -7.2385811780       -0.5724643497       -5.0720415109
 H        -6.9768719332        0.9738212983       -5.7918764970
 H        -8.5720412464        0.6599091926       -5.0704345544
 H       -12.4491638705        4.8597027338       -4.2009173308
 H       -11.9834621120        5.0091902811       -5.8819986305
 H       -13.0699877142        6.1636748281       -5.1749744687
 H        -9.7178753969        7.7244495437       -5.6449315513
 H       -11.4436696327        8.2414164873       -5.8213607923
 H       -10.8487595660        6.7626653109       -6.6811996433
 H       -10.9858476909        8.6922301073        1.5032129722
 H       -11.3218410817        7.1338355892        2.2378357969
 H       -12.1646899246        7.4905245555        0.7459854304
 H        -8.5696724063        7.8089716568        2.0406042491
 H        -7.9636117287        6.5683413871        0.8702477861
 H        -8.8994370283        6.1596789573        2.1434384119
 H       -10.9354654148        0.6693964044        0.5027477458
 H       -11.9506563850        0.0546603166       -0.7559185263
 H       -12.1148587956       -0.6841799029        0.8257865190
 H       -14.2586258478        0.4683058320       -0.8435975709
 H       -15.1859149124        1.4662753736        0.4177668185
 H       -14.6397337583       -0.2290837474        0.8607769980
 H       -16.6649806570        0.0479361847        7.4997033491
 H       -15.7713267267       -0.2654622058        8.8864343395
 H       -15.8199560720       -1.4712830352        7.7093642977
 H       -14.2952350246        1.3608370134        9.0785893083
 H       -14.5388498845        2.2447775487        7.6092490498
 H       -12.8886443599        1.5211597698        8.0404211226
 Na       -7.6036835455        5.6066252766       -1.8021659658
