117

 C       -12.6560658367       -0.9876781498        8.8914131812
 C       -13.0964197480       -0.6590978192        7.4892201954
 O       -12.4611672462       -1.1529875839        6.6071604815
 C       -14.2715658731        0.3365087566        7.1260270100
 C       -14.6293832493        0.2717894109        5.6141231387
 O       -15.8079056031        0.4250177530        5.2940062254
 C       -13.5213087575        0.3038856629        4.5240400999
 C       -13.9016661148        1.3325841451        3.4166754315
 C       -12.8160443999        1.5158103302        2.4348021597
 O       -11.7441871180        1.9337861931        2.8156381208
 C       -13.0377118863        1.2128849417        0.8607787730
 C       -12.9005615638        2.7264852049        0.2231295505
 O       -13.8232711232        3.1713689334       -0.3956521049
 C       -11.6080704290        3.5031146398        0.3714915535
 C       -11.8201146653        4.9818015464        0.3116142523
 C       -10.5579991862        5.7408783539       -0.1025979717
 O        -9.8103103566        5.2128016847       -0.9113666787
 C       -10.2550574902        7.0708643897        0.5196259263
 C        -9.5732734413        7.8168288375       -0.6624814500
 O        -8.4210753767        7.5116302468       -0.8798131462
 C       -10.3082355070        8.9200888367       -1.4955687179
 C       -10.2303582449        8.4956991623       -3.0173055321
 C       -11.1012493224        7.2821577616       -3.2673716322
 O       -11.9832756686        6.9639517469       -2.5041045212
 C       -10.9064388855        6.3579092995       -4.5990806282
 C        -9.7123030967        5.3654807655       -4.2796439940
 O        -8.7538213127        5.9570933077       -3.7703539180
 C        -9.6531442838        3.8985572187       -4.4421083970
 C        -8.2783156605        3.3116021581       -4.6508289841
 C        -7.9304304340        2.4769292091       -3.3379995889
 O        -8.2723155089        2.8955535310       -2.2627766383
 C        -7.2161606415        1.1547703627       -3.5148476386
 C        -5.7170729744        1.2592459617       -2.9657622070
 O        -4.8008915693        1.3376788347       -3.7537313063
 C        -5.4828667500        1.2181735396       -1.4115275489
 C        -4.2853371781        2.1551360447       -1.1433100621
 C        -4.8397871840        3.6657305498       -1.0738742360
 O        -6.0126660821        3.8868485915       -0.8336322749
 C        -3.7103427586        4.7942631946       -1.1474679844
 C        -4.3400054454        6.3142524961       -1.6299585005
 O        -5.4165389216        6.4147894868       -2.0881958222
 C        -3.3372706206        7.4740030160       -1.5994630571
 C        -3.2787459297        5.0199993208        0.3665436353
 C        -2.5218136191        4.5190552310       -2.0560236769
 C        -7.8847760136        0.0292483952       -2.7400093073
 C        -7.1471836484        0.6049586231       -4.9987125044
 C       -12.2566311443        5.6101603396       -4.9583889937
 C       -10.2934732156        7.2213944848       -5.8396186478
 C       -11.5301685087        7.7509470365        1.1683739497
 C        -9.2471243689        6.8930162318        1.6310736557
 C       -11.9683381043        0.1039261400        0.4822087732
 C       -14.4525144653        0.7447240352        0.4403592643
 C       -15.5921881394       -0.0461465573        7.8577621503
 C       -13.7426953266        1.7589117660        7.4501158448
 H       -12.5752202792       -2.0681260762        8.9551670155
 H       -13.2610722218       -0.6446247284        9.7826922621
 H       -11.5668589256       -0.6177914987        8.9605747286
 H       -13.5171423125       -0.7266769273        4.2082037619
 H       -12.5298983538        0.6025468299        4.8733678199
 H       -14.1224374706        2.3325367076        3.9114441456
 H       -14.8888199414        1.0428198056        3.0461118189
 H       -10.7405124295        3.1867441051       -0.2580916309
 H       -11.2717466342        3.2935153041        1.3732995248
 H       -12.1856629843        5.2789899212        1.3443109715
 H       -12.7162087565        5.1747407047       -0.3240472806
 H        -9.7952850880        9.8993184017       -1.3218749348
 H       -11.3409349249        9.1617028012       -1.2475687867
 H        -9.2275528460        8.2984537384       -3.3683288893
 H       -10.6861638555        9.3120066991       -3.5147776105
 H       -10.2982107502        3.6717969242       -5.2812540427
 H       -10.1801849493        3.4867566987       -3.5210272865
 H        -7.5181758846        4.1262262223       -4.7930888348
 H        -8.1906824420        2.6466496571       -5.5170931682
 H        -5.2255091343        0.1621139851       -1.1924169497
 H        -6.2847628861        1.4949664566       -0.6895800800
 H        -3.5922370149        2.1183633939       -1.9817137335
 H        -3.7773609339        1.8951502190       -0.2443112881
 H        -3.7277770799        7.9334788115       -0.6545231149
 H        -3.3624693609        8.1915409810       -2.3510858874
 H        -2.2980956862        7.1708344014       -1.7138787907
 H        -2.4638414109        5.7849853439        0.4634647700
 H        -2.8597627339        4.0469972401        0.7603323757
 H        -4.0871698838        5.3961865541        1.0098712591
 H        -2.0858023438        5.5284373325       -2.2133842497
 H        -2.7532205418        4.1415581028       -3.0497925539
 H        -1.7931569696        3.8739988328       -1.5598225522
 H        -8.9239950763       -0.1899845166       -2.8875433959
 H        -7.8599875076        0.2730852268       -1.6535607673
 H        -7.3752227764       -0.9257729585       -2.7914717819
 H        -6.9230117934       -0.4597192568       -4.9594167978
 H        -6.2442924292        1.1283430070       -5.3666505227
 H        -7.9634639404        0.7588780375       -5.7281264826
 H       -12.4143386461        4.8115686437       -4.2746033274
 H       -12.1650140667        5.2594420724       -5.9755437281
 H       -13.1232109764        6.2290299816       -4.8888078386
 H        -9.3623751783        7.6997169480       -5.5293488714
 H       -10.9257259359        8.1057743396       -6.1016208025
 H       -10.1773502100        6.5436757354       -6.6418728795
 H       -11.3095954705        8.7767487330        1.4231644048
 H       -11.9203488850        7.2294172648        2.0961969137
 H       -12.3236651019        7.7962637092        0.4581401210
 H        -9.2067170163        7.6625508502        2.3868106531
 H        -8.2515780105        6.6900860079        1.3481003221
 H        -9.5211382414        6.0038405893        2.2002901398
 H       -10.9099677977        0.2883126498        0.7633482595
 H       -12.0877035236       -0.1199143446       -0.5349699751
 H       -12.1228438883       -0.7776432678        1.0912427077
 H       -14.4065817041        0.4799828412       -0.6168052573
 H       -15.1689592054        1.6213988493        0.4913089851
 H       -14.8163026725       -0.0234596842        1.1526495771
 H       -16.5223275895        0.4719146831        7.6081474159
 H       -15.4974739777        0.0870830830        8.9130518428
 H       -15.8080567791       -1.0891532558        7.6503282808
 H       -13.4284054527        1.8067048662        8.5323466418
 H       -14.4933932062        2.5638249756        7.3027217998
 H       -12.9016729066        1.9666690251        6.7986186793
 Na       -7.6828557695        5.2758301379       -1.7162951949
