117

 C       -13.0185818796       -1.5257591984        8.7743602480
 C       -13.5746191958       -1.2104299605        7.4102551623
 O       -13.3519382238       -2.0073677276        6.5480206886
 C       -14.4716014123        0.0590954435        7.1807446877
 C       -14.6976212384        0.3819218013        5.6564439189
 O       -15.8174565896        0.1481259423        5.1942886201
 C       -13.5663945805        1.1339226602        4.8065592002
 C       -13.9616463733        1.0190706105        3.3126154514
 C       -12.7740931570        1.1655658959        2.3277989971
 O       -11.6566652258        1.3510291064        2.7288881490
 C       -12.9544709903        1.1346898143        0.7337910791
 C       -12.6256591410        2.5191754847        0.1604530276
 O       -13.5122278275        3.0536194936       -0.5025905767
 C       -11.3453483277        3.1992212475        0.5418083386
 C       -11.4819362929        4.8558341077        0.4751052024
 C       -10.2608234224        5.5602112814       -0.0219801857
 O        -9.4933931854        4.9967339899       -0.7884739286
 C        -9.8924509622        7.0484806853        0.4746416061
 C        -9.6395120902        7.8890555485       -0.8304295598
 O        -8.6298279448        7.6256494452       -1.4059380089
 C       -10.6895551278        8.8901264082       -1.4144039538
 C       -10.7010342983        8.5777036834       -2.9078837778
 C       -11.2861687464        7.1918497387       -3.2483971118
 O       -11.9638731786        6.6329667694       -2.4495396776
 C       -11.0593927592        6.3955173875       -4.5478134040
 C        -9.7505630283        5.6106483931       -4.1714450733
 O        -8.6909626465        6.2130919482       -3.9955539621
 C        -9.8464004069        4.1200410308       -3.8286817985
 C        -8.5913320048        3.3963088051       -4.2418020119
 C        -7.8802624354        2.5046835915       -3.1047329375
 O        -7.8975693540        3.0234881585       -2.0388499536
 C        -7.2346783965        1.0978747920       -3.4166574139
 C        -5.7124887667        1.4344882890       -3.4303718373
 O        -5.0623917916        1.7344491034       -4.4032365797
 C        -5.1001069729        1.4395567456       -1.9869601899
 C        -4.1305559505        2.6164523496       -1.8236287721
 C        -4.6301327077        3.9752441047       -1.2901695885
 O        -5.7733877332        4.0506611986       -0.8347510490
 C        -3.6417206619        5.1500650943       -1.3552573362
 C        -4.2504663999        6.5885771345       -0.9911916796
 O        -5.4167019867        6.8266135523       -1.1573988513
 C        -3.4099404675        7.7015386736       -0.3694625120
 C        -2.6126907307        4.8909754634       -0.2493666351
 C        -2.9316060009        5.2581186728       -2.7019502149
 C        -7.8142153793        0.1586955524       -2.2809097116
 C        -7.5816284905        0.5097037203       -4.8525178250
 C       -12.2652132607        5.5081186920       -4.8567472991
 C       -10.7225572572        7.3176602976       -5.6708828681
 C       -11.0158579981        7.8033475066        1.3384123138
 C        -8.6074824234        6.9842979501        1.3263253943
 C       -11.9615283285        0.1645348183        0.0354282809
 C       -14.3975626525        0.7515204241        0.2987362286
 C       -15.8432599554       -0.4741227001        7.7263640733
 C       -13.9799211816        1.2763159244        8.0246495972
 H       -11.9496647886       -1.6899463137        8.7255042811
 H       -13.3544664509       -2.4713020966        9.1132862353
 H       -13.2880789923       -0.8081301266        9.5220875578
 H       -12.5283680110        0.8463413810        4.8969361186
 H       -13.6110114479        2.2256215668        4.9968509699
 H       -14.7539755900        1.7674021656        3.2661953177
 H       -14.3313609211        0.0450649808        3.2131701080
 H       -10.5374511974        2.9043893891       -0.1172978889
 H       -11.0768418438        2.9308120260        1.5508372832
 H       -11.7985097632        5.3135272560        1.3764967714
 H       -12.3123857484        5.0344852008       -0.2287161199
 H       -10.3971896844        9.9087158103       -1.2361172266
 H       -11.7098815553        8.7501519085       -1.0133989403
 H        -9.6337210534        8.5903098292       -3.3118146917
 H       -11.3402580750        9.4137951220       -3.3210833512
 H       -10.6824540529        3.6790266908       -4.3151850627
 H       -10.1351284730        3.9957347265       -2.7735995129
 H        -7.7943978740        4.1271313332       -4.3741938882
 H        -8.7655426544        2.9031408479       -5.1825771863
 H        -4.5710333814        0.5375915540       -2.0097469771
 H        -5.7055768908        1.5129018542       -1.0556132998
 H        -3.6499855543        2.8458206407       -2.8267895500
 H        -3.2516640365        2.2814916621       -1.2598893527
 H        -3.7805637728        7.8363821550        0.6974918194
 H        -3.5064826465        8.5800343259       -0.9531356856
 H        -2.3333277496        7.4264636456       -0.2310708408
 H        -1.7169905596        5.4478948714       -0.4701600088
 H        -2.2789687405        3.8947241620       -0.0037960906
 H        -2.9982599804        5.2708192985        0.6618848362
 H        -2.3127161867        6.1458321519       -2.7392744351
 H        -3.6510347023        5.2002501931       -3.4667621549
 H        -2.2654074399        4.4330042413       -2.7392038203
 H        -8.8883941134        0.0322295268       -2.4025075449
 H        -7.6595796144        0.4716349607       -1.2430751462
 H        -7.4038135600       -0.8389441977       -2.2982285261
 H        -7.3507902945       -0.5473409343       -4.8676202055
 H        -6.8613990411        0.8946527111       -5.5590453597
 H        -8.5657793857        0.6380517876       -5.2512975049
 H       -12.5180411651        4.9134913853       -3.9668683839
 H       -11.9935879643        4.8043912754       -5.6731291657
 H       -13.0857203551        6.1530846173       -5.1866370851
 H        -9.7391662091        7.7506162473       -5.4549564314
 H       -11.5771135871        8.0161868174       -5.7551493432
 H       -10.6568461885        6.7934864772       -6.5806814055
 H       -10.7691870489        8.8357798855        1.5938646340
 H       -11.1222966169        7.1849109726        2.2749191901
 H       -11.9494354277        7.6953807675        0.8114065150
 H        -8.5684303346        7.9067919517        1.9575399376
 H        -7.6933036691        6.8529067100        0.7536093154
 H        -8.6139616925        6.1040018629        2.0119264657
 H       -10.9266819168        0.5054600268        0.1889033142
 H       -12.0279280445        0.2358670797       -1.0245437121
 H       -12.1749565982       -0.8595773962        0.2357484501
 H       -14.5235551135        0.6486253340       -0.7356303151
 H       -15.0160565538        1.5285955156        0.7059256428
 H       -14.6459575136       -0.1928725119        0.7272334052
 H       -16.5748382966        0.3482263672        7.8216791719
 H       -15.7545040673       -0.9008442013        8.7393522194
 H       -16.2947807980       -1.2963274951        7.1350404865
 H       -13.9881871824        0.9843499789        9.0837005691
 H       -14.6082229305        2.1770966529        7.9026922674
 H       -12.9513838618        1.4746364817        7.8117291813
 Na       -7.4897251229        5.5633822225       -1.9093055598
