117

 C       -12.2234924505       -0.1083101216        9.1289849562
 C       -12.6447516305       -0.2037623930        7.7121986067
 O       -12.0620851354       -1.0007745726        7.0243320820
 C       -13.9410558806        0.6574532877        7.3175472500
 C       -14.5125241542        0.4869327047        5.8327269226
 O       -15.7143165730        0.2184939099        5.6825963993
 C       -13.5619335791        0.9164317998        4.7576759651
 C       -14.2118501846        0.9099173653        3.3668194169
 C       -13.1600278069        1.5111545916        2.3923618990
 O       -12.1952387183        2.1599487474        2.8254426145
 C       -13.3420966980        1.3018792510        0.8176305363
 C       -13.2961787799        2.7115507412        0.2254571786
 O       -14.3371606123        3.3892148291        0.3453142113
 C       -12.0007791279        3.3771542948       -0.1449850235
 C       -12.0675845809        4.8751438674       -0.0812100256
 C       -10.6918051566        5.5311439400       -0.3281032746
 O        -9.8490402092        4.8399752489       -0.8401413743
 C       -10.3960880740        6.9649066938        0.2017599222
 C        -9.2782757247        7.6537647862       -0.7704223003
 O        -8.2658813258        7.0694867395       -0.9691829954
 C        -9.6080821258        8.8645125883       -1.7281603146
 C        -9.5580048936        8.2823926962       -3.1533407585
 C       -10.6131098894        7.2467760453       -3.3780117644
 O       -11.3376127250        6.9295920247       -2.4674070509
 C       -10.5419029849        6.4969164315       -4.7732315821
 C        -9.3056265155        5.5032383394       -4.5871516957
 O        -8.3110884565        5.8448314779       -4.0360179695
 C        -9.3927251069        4.0662858165       -5.3058737996
 C        -8.0413687942        3.2986940392       -5.1356515035
 C        -7.9550597580        2.5586422059       -3.7389672641
 O        -8.3783177543        3.0564915780       -2.7243744375
 C        -7.2663721106        1.2385303981       -3.5898454933
 C        -5.9659798731        1.5580088813       -2.6366345323
 O        -4.9193683671        1.7510446421       -3.1518084352
 C        -6.0272261477        1.5086407927       -1.0879015405
 C        -4.8500416334        2.1291809509       -0.2400934648
 C        -5.0095014293        3.6345362642       -0.1788952416
 O        -6.0433746313        4.1106193862        0.2032705515
 C        -3.9278540010        4.6981330656       -0.7856960386
 C        -4.5359466119        5.3143539519       -2.1024822123
 O        -5.5643383499        4.8841260474       -2.6027897704
 C        -3.7636747097        6.4781166307       -2.8172144412
 C        -3.7965315781        5.7447707183        0.2623564130
 C        -2.5539569656        4.0959270405       -1.1260729148
 C        -8.1401014906        0.1446996894       -2.9336847542
 C        -6.7601222869        0.6102176920       -4.9373254219
 C       -11.8588983588        5.6870617572       -4.9977802800
 C       -10.3444282782        7.4436060006       -5.9700618217
 C       -11.7070784896        7.8263139066        0.4537241617
 C        -9.5880720441        6.6188768125        1.5294422473
 C       -12.1251764227        0.4660382039        0.4115988419
 C       -14.6587321654        0.7352026908        0.4527731267
 C       -15.1494871607        0.3137636422        8.2327090087
 C       -13.5864720053        2.1882766316        7.5489544841
 H       -13.1748308950        0.0468511521        9.7533372579
 H       -11.5407354813        0.7032202840        9.2457100098
 H       -11.8009612869       -1.0108371972        9.5156745474
 H       -12.6247156998        0.4086194728        4.6237060850
 H       -13.1812562002        1.8899801854        4.9676126030
 H       -15.1573918462        1.4737251657        3.3740484825
 H       -14.3808847098       -0.1500938343        3.0508263809
 H       -11.5839461771        3.0877020778       -1.0724033209
 H       -11.3063999635        3.0392220830        0.6058285697
 H       -12.4892486474        5.0576541506        0.9082647338
 H       -12.8011008270        5.3292932932       -0.8293705611
 H        -8.7689982566        9.5742903835       -1.6291041921
 H       -10.5835466008        9.3753216973       -1.5033574185
 H        -8.6022410839        7.7243454563       -3.2302519853
 H        -9.4490983363        9.0856861134       -3.9077592443
 H        -9.5392798275        4.1386525364       -6.3864672831
 H       -10.2158538229        3.5398404449       -4.8215382058
 H        -7.2188821922        4.0242858055       -5.2355572804
 H        -7.9260328252        2.5426814331       -5.9487040163
 H        -6.1276297996        0.4764128164       -0.8362929399
 H        -6.9795416302        1.8809968578       -0.6161577698
 H        -3.8837144415        1.8667210426       -0.6710241522
 H        -4.9786922713        1.7380875523        0.7421524894
 H        -4.0507960764        7.4444103415       -2.4670878881
 H        -4.1336873488        6.3969911197       -3.8887174161
 H        -2.6922063435        6.3630331584       -2.6081529675
 H        -3.0839888672        6.5094674787        0.0834490497
 H        -3.4887014703        5.1516172462        1.0897634303
 H        -4.8066381973        6.0753485035        0.4846990434
 H        -1.8365748427        4.8569305418       -1.2348057109
 H        -2.5242439472        3.4875803991       -2.0218043372
 H        -2.1411154549        3.5203232932       -0.3180674514
 H        -8.8758491662       -0.2652632895       -3.6510226466
 H        -8.7055717609        0.5626729542       -2.1276381255
 H        -7.6458480625       -0.6912501222       -2.4419460808
 H        -6.0175033424       -0.1197305916       -4.6853667759
 H        -6.2597426045        1.3720899511       -5.4703077044
 H        -7.6052053243        0.2707660878       -5.4865456106
 H       -12.1403251315        5.0662993491       -4.1058540455
 H       -11.8640047641        5.0335235529       -5.8861686159
 H       -12.6451793936        6.4676245391       -5.0898207713
 H        -9.3608635220        7.8926882924       -5.9297061171
 H       -11.1403053271        8.1446020446       -5.9716899003
 H       -10.4556612230        6.9645605468       -6.9587053604
 H       -11.3979593308        8.8534643052        0.7362976495
 H       -12.3655026540        7.4670443158        1.2138572333
 H       -12.3752144883        7.9525493260       -0.4445697936
 H        -9.1047066653        7.3462281884        2.2011358245
 H        -8.7136812341        5.9580703617        1.2026640257
 H       -10.1526926884        5.9646710799        2.2022984054
 H       -11.2289002925        0.9657071377        0.5831718899
 H       -12.1249426903        0.3372306839       -0.7018732608
 H       -12.1873411034       -0.5232763223        0.7937706213
 H       -14.6946005608        0.7789865112       -0.6226460234
 H       -15.3766603435        1.4019368220        0.7983949890
 H       -14.7810978940       -0.2748977875        0.7651926983
 H       -16.0513554360        0.7779245699        7.8580669279
 H       -15.0016759404        0.6810155713        9.2843358311
 H       -15.2488045562       -0.7606127042        8.4017914848
 H       -13.3585336655        2.4490412282        8.5451093168
 H       -14.4050439929        2.8349234037        7.2763560612
 H       -12.7002692700        2.4286909080        6.9638615136
 Na       -7.6428874757        5.0109419716       -1.6401474834
