117

 C       -12.2985102430       -0.5588384703        8.9271787135
 C       -12.9172650580       -0.4032868527        7.5389996003
 O       -12.2752869293       -0.7897468308        6.5650028609
 C       -14.1835928547        0.5417762216        7.3526009102
 C       -14.6945385057        0.3125769663        5.8581675029
 O       -15.8346084210       -0.0491958693        5.7155468149
 C       -13.7301746125        0.5002752256        4.7060333256
 C       -14.1527222505        1.2508304225        3.3394323314
 C       -12.9528788837        1.4719983037        2.3964870484
 O       -11.9224712331        2.0283719642        2.7683549317
 C       -13.1491839135        1.1450996970        0.9294949612
 C       -13.3413414494        2.6819427927        0.2813324949
 O       -14.4564546788        3.1105958656       -0.0099662693
 C       -12.0715782234        3.4221147721       -0.0400238320
 C       -12.0414054851        4.9056675147       -0.0989301268
 C       -10.5864029934        5.4542556034       -0.1705198680
 O        -9.6660947780        4.8555214696       -0.6932842711
 C       -10.2681052554        7.0121099745        0.2697783776
 C        -9.3167925303        7.7526169039       -0.7071072398
 O        -8.1655477028        7.4234372139       -0.8555668639
 C        -9.7727766641        8.9983805039       -1.6116000770
 C        -9.8948109429        8.5489561663       -3.1148930721
 C       -10.8398029065        7.3481754538       -3.2954312074
 O       -11.6927298706        7.0222611335       -2.4973892165
 C       -10.6143261452        6.3833770512       -4.6038655509
 C        -9.4291252279        5.5371866062       -4.2687335530
 O        -8.3822626772        5.9525069139       -3.7738686645
 C        -9.6360896582        4.0519071059       -4.8068197871
 C        -8.3419082310        3.3438617158       -4.9739223467
 C        -7.9893920089        2.4997823689       -3.6796700148
 O        -8.1928632038        3.0874385096       -2.6614577110
 C        -7.2052539772        0.9933390640       -3.5526553123
 C        -5.8294514927        1.3060235432       -2.7904209519
 O        -4.8494969192        1.6426661750       -3.3989837170
 C        -5.8373664542        1.3747119163       -1.2802272818
 C        -4.6627372289        2.1937445234       -0.5968518404
 C        -4.9647270727        3.6540790450       -0.6046714746
 O        -6.0968106344        4.0052850838       -0.3119138032
 C        -3.8455081042        4.7565375929       -0.9764108170
 C        -4.3945801005        5.7893291053       -1.9897734896
 O        -5.3599277979        5.5550775217       -2.7493685805
 C        -3.6588769020        7.1116764828       -2.1976744495
 C        -3.5601523424        5.4043139364        0.4123617710
 C        -2.5336899750        4.0861924453       -1.4931166477
 C        -8.0572493543        0.1021366311       -2.7177688479
 C        -6.9305334609        0.5777568629       -4.9541758007
 C       -11.9341341491        5.6241388789       -4.8781865786
 C       -10.3215850227        7.2121628906       -5.8489907936
 C       -11.5372572042        7.7238614301        0.4954065035
 C        -9.3957126844        6.8930649491        1.5124295101
 C       -11.8792223907        0.5351161751        0.2643544410
 C       -14.4508957730        0.3574449371        0.4626409050
 C       -15.3169431979        0.3495134690        8.3313948785
 C       -13.7026750013        2.0008797082        7.6068137390
 H       -12.9805310114       -0.8964023156        9.7606412262
 H       -11.7896635374        0.4254681254        9.1413607178
 H       -11.5712308810       -1.3788355318        8.8453312946
 H       -13.3388010751       -0.4950299433        4.5238392315
 H       -12.8048714803        0.9892226570        4.9676139705
 H       -14.6594110505        2.2668323706        3.5340718846
 H       -15.0057936109        0.6853475067        2.9313702674
 H       -11.6894057876        3.0327741909       -0.9956171405
 H       -11.3362658455        3.0689304253        0.6987320861
 H       -12.5363054436        5.2743884805        0.7874143962
 H       -12.6311802209        5.2869545206       -0.9991742077
 H        -8.9674387533        9.7129716346       -1.5237274109
 H       -10.6762366875        9.5753137484       -1.2220359546
 H        -8.9029619789        8.3275940076       -3.4411803546
 H       -10.3058333636        9.3337018293       -3.7288307182
 H       -10.0704143403        4.1159207143       -5.8209446243
 H       -10.2883952164        3.4655214826       -4.1245548373
 H        -7.4553868414        4.0101447115       -4.9943421258
 H        -8.2896011500        2.7465111364       -5.9120583380
 H        -5.8897920189        0.4119955023       -0.8071626067
 H        -6.8793987504        1.8209891880       -1.0075651859
 H        -3.7327418202        1.9275778120       -1.0938609131
 H        -4.6695247611        1.9228950132        0.4154591415
 H        -4.2478858643        7.8802196112       -1.6773979391
 H        -3.8319314362        7.4186973754       -3.2896047788
 H        -2.5841097713        7.0965931954       -1.9768270864
 H        -3.2024721158        6.4258583402        0.3130292733
 H        -2.9073457209        4.7214474245        0.9465017893
 H        -4.4566750141        5.3859608777        1.0680652376
 H        -1.7333177799        4.7688483753       -1.7483251828
 H        -2.8332568058        3.5871644331       -2.4223586054
 H        -2.0784459614        3.3709427228       -0.7853076718
 H        -9.0824990318        0.0241896300       -3.1545314656
 H        -8.2260565794        0.3694206049       -1.7023241255
 H        -7.7336936313       -0.9314611727       -2.6588519982
 H        -6.6238769235       -0.4906222166       -4.8803339155
 H        -6.0794365712        1.1390018036       -5.3212162761
 H        -7.8442562910        0.5908238449       -5.5041346379
 H       -12.1656466971        4.9962061955       -4.0001960375
 H       -11.9358811041        4.9953685829       -5.7483213552
 H       -12.6977148806        6.3729629921       -5.0022873789
 H        -9.3063218690        7.6678118015       -5.7689406462
 H       -11.1178716026        7.8977968230       -5.9867504888
 H       -10.2458532357        6.6029296957       -6.7573440367
 H       -11.2509092289        8.7361094231        0.7917269360
 H       -12.0084196439        7.3523731236        1.3595399750
 H       -12.2907910051        7.8984707564       -0.3277915289
 H        -8.9013496740        7.7832343189        1.7821147596
 H        -8.4686838012        6.3165337768        1.3948003581
 H        -9.9286491588        6.5528894699        2.3454877137
 H       -11.0544410974        0.8892601902        0.8138061732
 H       -11.7277836824        0.7493264983       -0.8442439642
 H       -11.9016332162       -0.5400249198        0.3643440281
 H       -14.2939178002       -0.0662136529       -0.5283727808
 H       -15.3436667119        0.9674907355        0.5549096054
 H       -14.4665474913       -0.5883909124        1.0488258717
 H       -16.1011877251        1.0336079821        8.1009486580
 H       -14.9744020877        0.4717149731        9.3870342071
 H       -15.8339809635       -0.6092491001        8.3254360374
 H       -13.2776858518        2.0972116503        8.5895137170
 H       -14.5843774377        2.6678052196        7.5435521994
 H       -12.9811331825        2.4293545078        6.8980157923
 Na       -7.5654413523        5.2268393887       -1.6295267231
