117

 C       -12.0225656924        0.4007839022        9.5754745615
 C       -12.3634063909        0.3786759079        8.0798412159
 O       -11.5679337086        0.0583286303        7.2666529685
 C       -13.7034405884        1.1153136864        7.5412857281
 C       -13.8992419987        0.7720950204        6.0162359973
 O       -14.9628591576        0.3114986844        5.6071629713
 C       -12.7730522463        1.1733880942        5.0786528610
 C       -13.1643450718        0.9387332725        3.6228620317
 C       -13.2805013412        2.2635294912        2.7700985699
 O       -12.7855600018        3.3108091024        3.0747772312
 C       -14.2481283802        2.2445947316        1.4923385271
 C       -13.8482352220        3.4338247420        0.6342378770
 O       -14.6574596183        4.2480463030        0.2754767999
 C       -12.3896148490        3.4343114614        0.1100594560
 C       -11.8642348010        4.8581554117        0.2841533960
 C       -10.6505682167        5.2774167486       -0.3956600227
 O       -10.0967019332        4.6095430385       -1.2302538885
 C       -10.0014692953        6.7385973272       -0.0561749980
 C        -9.6394326484        7.3944005870       -1.3101171673
 O        -8.4965968721        7.2005528464       -1.7905795777
 C       -10.6242220416        8.2107992628       -2.1379615357
 C       -10.1532060245        8.2049861555       -3.6235426891
 C       -10.6674699706        6.9508750427       -4.3452046789
 O       -11.5524438676        6.2953152606       -3.7915922868
 C        -9.8229205384        6.4496488505       -5.5909808953
 C        -8.7526179848        5.4912594014       -4.8717879227
 O        -7.8668601968        6.0823809110       -4.2613518479
 C        -9.0271434413        4.0201522854       -4.8980481152
 C        -7.7466615237        3.1604962092       -4.8532854383
 C        -7.6275726412        2.2089180842       -3.6728603167
 O        -8.2426201488        2.4919625164       -2.6632460135
 C        -6.6445036545        0.8995321093       -3.6082746047
 C        -5.7831246641        1.0781622401       -2.2368084412
 O        -4.5778531861        1.3212075843       -2.3241271559
 C        -6.4684141189        1.1196685640       -0.8640074639
 C        -5.5748766648        1.8477876781        0.1499915067
 C        -5.8824988576        3.3735665244       -0.0894782959
 O        -7.0715723650        3.7197122680       -0.0010441709
 C        -4.7395046074        4.4005203233       -0.4162720699
 C        -4.6062380652        4.3143042543       -2.0461234623
 O        -5.5664047852        4.3072365777       -2.7884203731
 C        -3.0683154651        4.2821239945       -2.5084639563
 C        -5.1276222230        5.8318569066       -0.2177861548
 C        -3.3907455545        3.9808775299        0.2336793438
 C        -7.6592572850       -0.2456453452       -3.6256709639
 C        -5.6717951752        0.8433248619       -4.7662254727
 C       -10.8638719799        5.7697976411       -6.5606893187
 C        -9.1579379094        7.5725667021       -6.3792441756
 C       -11.1207443594        7.6208908570        0.7157211200
 C        -8.8433146311        6.3555193840        0.8954132548
 C       -14.0626909591        0.8835625874        0.7753543181
 C       -15.5888436133        2.4068258367        2.0717135105
 C       -14.9407276288        0.6772428346        8.3898758735
 C       -13.4655770653        2.6523588641        7.6994689557
 H       -12.7001581039       -0.2021827088       10.2390675339
 H       -12.0742033198        1.4919245962        9.8458435401
 H       -11.0782442644       -0.0140927564        9.8102069792
 H       -11.8024437597        0.7027553105        5.3648327170
 H       -12.5777981002        2.2907550204        5.3112406494
 H       -14.0827214506        0.3867664264        3.7254817793
 H       -12.4749823776        0.2831396839        3.1085560769
 H       -12.5348535903        3.1549391942       -0.9854403393
 H       -11.7660042648        2.6234937298        0.5262177060
 H       -11.7309857190        5.1336251039        1.3438681751
 H       -12.6066944376        5.5189422569       -0.1387372865
 H       -10.7105177859        9.2029758799       -1.7311345320
 H       -11.6430549189        7.9008801940       -2.0806504506
 H        -9.0818073490        8.1172232049       -3.6121951598
 H       -10.4721427576        9.1095587166       -4.1612866449
 H        -9.6100951952        3.6857604909       -5.7792436833
 H        -9.7484796411        3.7915674213       -4.0906342161
 H        -6.8601869697        3.8033267575       -4.8584184930
 H        -7.7196171120        2.5723702157       -5.7653383637
 H        -6.7851890336        0.1107250189       -0.5472880472
 H        -7.2942860240        1.7481930303       -1.0387859374
 H        -4.5097932203        1.6306052738        0.0374032264
 H        -5.9292750564        1.5446319512        1.1765254856
 H        -2.5691582216        3.3558647760       -2.2766195539
 H        -2.5186519350        4.9716679657       -1.7947188791
 H        -3.0078788707        4.5871196915       -3.5369366041
 H        -4.3355255319        6.5291671256       -0.4411264316
 H        -5.3262343351        5.8987450652        0.8403493420
 H        -6.0297291938        5.9801790297       -0.7623336890
 H        -2.5548573792        4.6810509881        0.1141249876
 H        -3.1299084475        3.0856227957       -0.2585190300
 H        -3.4198461421        3.7251648796        1.2856134690
 H        -8.1761359533       -0.2338629961       -4.5838107628
 H        -8.4061709164       -0.1410516967       -2.8428890622
 H        -7.1837256372       -1.2117569767       -3.4618761731
 H        -4.8801593907        0.1051998510       -4.5638450097
 H        -5.1671547857        1.7900667866       -4.8849413451
 H        -6.1470542600        0.6462628410       -5.6648412143
 H       -11.7427523727        5.2858171371       -6.0749747703
 H       -10.3388793951        5.0505581307       -7.2256250114
 H       -11.3265205964        6.5636076317       -7.1415836690
 H        -8.4481145433        8.1704680121       -5.7485446310
 H        -9.8729839809        8.2194407621       -6.8807444402
 H        -8.6283164187        7.1917083018       -7.1893189546
 H       -10.5943727135        8.5245069180        0.9442401048
 H       -11.2609485450        7.1762997637        1.6988498503
 H       -12.1028513893        7.7616954715        0.1567048377
 H        -8.1729629020        7.1855902924        1.1569859037
 H        -8.1401994384        5.5856945911        0.4519079922
 H        -9.2387632770        6.0081375391        1.8475941281
 H       -13.0558837207        0.5485944783        0.5969368651
 H       -14.5443048978        1.0272858579       -0.1978091913
 H       -14.6710911589        0.1474399744        1.3064386728
 H       -16.3101233015        2.5726486630        1.3386523218
 H       -15.7181725340        3.2554794711        2.7068489052
 H       -15.8606707641        1.4935392446        2.6246165292
 H       -15.8240443961        0.9660832443        7.8368700416
 H       -14.9079589911        1.2615489095        9.3179976735
 H       -14.8240340354       -0.3790630672        8.6305056773
 H       -13.9730833242        3.0305348819        8.5798542505
 H       -13.9798087287        3.1864550361        6.9183916186
 H       -12.4336170763        2.8558819426        7.7015993330
 Na       -7.9624233826        4.8062854360       -2.1848834651
