117

 C       -12.1952196182        0.3843081942        9.7232936554
 C       -12.2248396052        0.5881282767        8.2583400548
 O       -11.2221655016        0.3772916630        7.5694787318
 C       -13.4823626267        1.2560162726        7.5634422944
 C       -13.6391514284        0.8470741915        6.0027508826
 O       -14.7119311347        0.3123515757        5.7215342614
 C       -12.5821657011        1.1704002865        4.9310455729
 C       -13.2092234071        1.0247078776        3.4774323046
 C       -13.6521859976        2.3743683869        2.8899112575
 O       -13.0754157726        3.3552147431        3.3799690600
 C       -14.4679387591        2.3698307033        1.6281259845
 C       -14.0398527532        3.5893062191        0.6310698254
 O       -14.8552226105        4.2656859927        0.1813991731
 C       -12.4318564880        3.6742060314        0.2828157564
 C       -12.0190053344        5.2109156353        0.4152663337
 C       -10.6572408245        5.5332992618       -0.2141265409
 O       -10.0478462531        4.6887824494       -0.8276169556
 C       -10.0656706543        6.9602135075       -0.0614449517
 C        -9.6897460184        7.3459103187       -1.5202478764
 O        -8.6195397641        7.0102501644       -2.0598424161
 C       -10.6637628776        8.2193250190       -2.3641614244
 C       -10.3672855571        8.2204456943       -3.8768366304
 C       -10.8010109208        6.8968750046       -4.6008638911
 O       -11.7786371787        6.2366300576       -4.3008299315
 C        -9.7301699132        6.3217971118       -5.6959532180
 C        -8.8449145766        5.2584540423       -4.9637922206
 O        -7.9385179671        5.6762249299       -4.2635020065
 C        -8.8950333172        3.7778383067       -5.3128610617
 C        -7.5994807853        2.9602513960       -4.8970180053
 C        -7.6095145106        2.0540697668       -3.6280739054
 O        -8.3425978467        2.3588888168       -2.7006844013
 C        -6.6852810642        0.8314814048       -3.5685831705
 C        -5.7059660345        1.0966236297       -2.3686267657
 O        -4.6268049746        1.6932107366       -2.5674726457
 C        -6.1318147223        0.7425335681       -0.9261128768
 C        -5.5381479747        1.5443188966        0.2164135713
 C        -5.8752317814        3.0051841307       -0.1643488351
 O        -7.0321475928        3.3402779142       -0.4031754112
 C        -4.7815034308        4.1097968671       -0.3125012043
 C        -4.5678718876        4.4295049796       -1.8685176077
 O        -5.3916703016        5.0118312497       -2.5025149881
 C        -3.2146569951        3.8775323152       -2.4553868385
 C        -5.2292449014        5.5427457631        0.2987014977
 C        -3.4428522377        3.6192679168        0.3742157272
 C        -7.5330976233       -0.5205838969       -3.4329584746
 C        -5.8144342025        0.6763668617       -4.8630483904
 C       -10.5686373832        5.7560788584       -6.8068494636
 C        -8.7322646419        7.4195481805       -6.3153208371
 C       -11.0464893428        7.9255243495        0.6031063239
 C        -8.7314377043        6.9204312353        0.8243711970
 C       -14.3171559826        0.9879495555        0.8212505151
 C       -16.0773327429        2.6669268495        1.8936654438
 C       -14.7946729499        0.7981437021        8.3028501383
 C       -13.3071936834        2.8345638646        7.7767295141
 H       -12.3752086221       -0.7031508122        9.9712768420
 H       -12.8889983042        1.0298037308       10.2044229940
 H       -11.2269122704        0.5867331775       10.1986182078
 H       -11.7042323064        0.5288183839        5.1002900230
 H       -12.0580769134        2.1944684529        5.0292809378
 H       -14.0901521225        0.3509562608        3.4756823366
 H       -12.4312305136        0.5687041811        2.8164402367
 H       -12.4029702818        3.4503825148       -0.8432123522
 H       -11.8491711091        2.9117308276        0.8253203559
 H       -11.8827843462        5.4130161395        1.4850496772
 H       -12.8280661841        5.8090565103        0.0587453286
 H       -10.5525944774        9.2787219375       -2.1081261271
 H       -11.7286364075        8.0937386244       -2.1411935313
 H        -9.3210295346        8.3148191168       -3.8991280698
 H       -10.9219101035        9.0136187147       -4.3463752992
 H        -9.0607504388        3.5876189537       -6.3922440376
 H        -9.7389200618        3.2845524109       -4.7624756422
 H        -6.7869443397        3.7184680019       -4.7734537538
 H        -7.3081474000        2.3763104105       -5.7808864880
 H        -5.9109753986       -0.3366877846       -0.8382178000
 H        -7.1959397294        0.8942188913       -0.9924709012
 H        -4.4738221943        1.4241801218        0.2460510686
 H        -5.9874471157        1.3221344511        1.1877823385
 H        -2.7175370671        3.2753578949       -1.7765089287
 H        -2.4805124090        4.7425616793       -2.5855279572
 H        -3.4827850904        3.3137292784       -3.4053068814
 H        -4.3485979263        6.1699927582        0.2810996185
 H        -5.4015217559        5.3934087634        1.3464162741
 H        -6.0568466149        5.9776796366       -0.2696753569
 H        -2.8548968566        4.5058530801        0.3697551138
 H        -2.8256454303        2.8805622695       -0.0778947065
 H        -3.5759964682        3.2440058230        1.3566907265
 H        -8.0217379064       -0.7407081152       -4.4249938071
 H        -8.3781235521       -0.3090122866       -2.7712385061
 H        -6.9060455879       -1.3647255250       -3.0874604107
 H        -5.0066809292       -0.0750612727       -4.7800580906
 H        -5.3599102491        1.5884737404       -5.2341516895
 H        -6.4255325546        0.3335466158       -5.6586997216
 H       -11.3832663659        5.2414358473       -6.2779307448
 H       -10.0564034507        5.0525457763       -7.4498646376
 H       -10.9400371480        6.5427314846       -7.4328937744
 H        -7.8496068900        7.6707989279       -5.6731133875
 H        -9.2273095156        8.3811228240       -6.4608781058
 H        -8.3776037926        7.0031604631       -7.2273933971
 H       -10.6231887588        8.8984566490        0.7360245993
 H       -11.3134856632        7.4165831102        1.4922348042
 H       -11.9931339093        7.8824535148       -0.0184495949
 H        -8.3648634245        7.9017958424        1.1885320142
 H        -7.9192328493        6.2781340905        0.3532522069
 H        -9.0236321944        6.3773729465        1.7304490722
 H       -13.3057365798        0.9386428561        0.5347881332
 H       -15.0145443341        0.9333704903       -0.0577857635
 H       -14.4139475631        0.1031214733        1.4437312563
 H       -16.7390003802        2.3154784502        1.1425902361
 H       -16.3198169359        3.6790844015        2.1092388701
 H       -16.3150230434        2.2045448007        2.8562380007
 H       -15.6679082977        1.1699645750        7.8251877431
 H       -14.7074747999        1.2091082132        9.3177722429
 H       -14.7975824313       -0.2884013239        8.2885043556
 H       -12.5419374829        2.9735896207        8.5676612881
 H       -14.2438685319        3.3848003827        8.0357929719
 H       -12.9506697385        3.3022267220        6.8717633671
 Na       -7.8938604222        4.9079176811       -1.8341368307
