117

 C       -12.0728696647        0.3690624446        9.7735277268
 C       -12.1996408502        0.6493007636        8.2426082281
 O       -11.1924499619        0.5367965895        7.5432350334
 C       -13.4745397683        1.2931413871        7.5829857880
 C       -13.6670467122        0.8949481571        6.0458641203
 O       -14.6273243199        0.2601039082        5.6857756355
 C       -12.6219979659        1.1833889790        4.9981351668
 C       -13.2179749845        1.0233831351        3.6083327130
 C       -13.6355303525        2.4157837078        2.9304304612
 O       -13.2556004629        3.5184551780        3.3425318085
 C       -14.4541281505        2.3992585058        1.6156218397
 C       -14.0638604273        3.5232121560        0.6852076101
 O       -14.8377251438        4.3514349891        0.1692866333
 C       -12.5548223145        3.7259635549        0.3637598348
 C       -12.0690251303        5.2691501555        0.4775884485
 C       -10.6563804777        5.5539386884       -0.2068461028
 O        -9.9648839137        4.6484008277       -0.6353713198
 C       -10.1518092416        7.0536853568       -0.0599865591
 C        -9.7007546962        7.5154666501       -1.5818085250
 O        -8.6914106240        7.0893535766       -2.0772089983
 C       -10.7459351697        8.2007514691       -2.4608292018
 C       -10.2538244219        8.1887284123       -3.9008828678
 C       -10.6264475520        6.8692326338       -4.6133433856
 O       -11.6604784072        6.2960461084       -4.4316521049
 C        -9.7182353026        6.2752667193       -5.8132411685
 C        -8.7507601896        5.2050929205       -5.0216555943
 O        -8.0079055935        5.6480269988       -4.1771356959
 C        -8.8963144721        3.6944739530       -5.3223181972
 C        -7.6237192139        2.8472860436       -5.0048263911
 C        -7.6358942262        2.0274291840       -3.7208612919
 O        -8.2447901847        2.2758933050       -2.7111767168
 C        -6.6847686908        0.8098831667       -3.6424394891
 C        -5.7888756765        1.0578478581       -2.3922850539
 O        -4.7570742419        1.6302842469       -2.6122257154
 C        -6.1708700874        0.6148055173       -0.9492582724
 C        -5.4477973099        1.5286121809        0.0798556463
 C        -5.8397939577        2.9843963926       -0.1547814034
 O        -7.0326268141        3.1572140700       -0.3486570998
 C        -4.6763469645        4.0535127364       -0.2476583150
 C        -4.5043590530        4.3836837147       -1.8033788839
 O        -5.4008838738        5.0101784693       -2.3449841856
 C        -3.2107955947        4.1140436049       -2.5046925048
 C        -5.1048077524        5.3872199008        0.3926635354
 C        -3.4289502151        3.5705666677        0.5118399850
 C        -7.5431080987       -0.4703178343       -3.3729691793
 C        -5.7173632483        0.4812276770       -4.8035160466
 C       -10.6431665485        5.7233144983       -6.9356333798
 C        -8.8332602369        7.4289273653       -6.2192004464
 C       -11.1413289679        8.0023768910        0.5858603114
 C        -8.8212887793        7.0073822497        0.6896250222
 C       -14.4107631636        1.1068117148        0.8004317004
 C       -15.9394416473        2.5935792642        1.9417470895
 C       -14.8411077484        0.8769189904        8.1816421662
 C       -13.2225759764        2.8059237221        7.7435395152
 H       -12.4801025374       -0.6242730674       10.0608272940
 H       -12.4968333670        1.1394153827       10.3751780431
 H       -10.9809183003        0.2951305259       10.1179879771
 H       -11.7687414652        0.4760674215        5.1570898106
 H       -12.0256491540        2.1716427690        5.0400409338
 H       -14.1240217022        0.3866696724        3.6120929959
 H       -12.4652358278        0.5344165885        3.0334406702
 H       -12.2942115306        3.4305133946       -0.6950327398
 H       -12.0418928412        3.0285174665        1.0589991974
 H       -12.0518595514        5.5852212914        1.5253319409
 H       -12.7937654720        5.8799031760       -0.0689950559
 H       -11.0217492346        9.1624720904       -2.1965625628
 H       -11.7251926884        7.6913836989       -2.3964066511
 H        -9.1721494854        8.3522270337       -3.8168420021
 H       -10.8309271077        8.9118881664       -4.4353157292
 H        -9.1043560722        3.5571212969       -6.3611049076
 H        -9.7157579661        3.2076359166       -4.7223201735
 H        -6.7924137522        3.5627846336       -4.9969056137
 H        -7.3980672724        2.1725567462       -5.8307377531
 H        -5.8531711529       -0.3597208891       -0.8614424275
 H        -7.2891735693        0.6277372532       -0.9370927372
 H        -4.3395931310        1.3603019117       -0.0373977817
 H        -5.7423575395        1.3219511555        1.1172464358
 H        -2.8136486070        3.2451525028       -1.9038325487
 H        -2.5476828730        4.9078558917       -2.2517241027
 H        -3.3448783647        3.8406641275       -3.5868147740
 H        -4.4129493180        6.1738419606        0.1741903305
 H        -5.0111325014        5.1667837690        1.4181456764
 H        -6.1191384800        5.6584200990        0.0936880785
 H        -2.7849544055        4.3819093188        0.6114765420
 H        -2.8315945906        2.7351907841        0.1510780058
 H        -3.7866914672        3.2977022722        1.4631164076
 H        -8.1280751327       -0.7556464462       -4.2810172022
 H        -8.2766326045       -0.1601387955       -2.6337777827
 H        -6.9206075277       -1.3103690610       -3.0572738320
 H        -5.0469706830       -0.3062724739       -4.6610187976
 H        -5.1614518866        1.3196671096       -5.1371589565
 H        -6.3300435579        0.1839664742       -5.6703779380
 H       -11.5678512040        5.3377178826       -6.4641226980
 H       -10.1589225999        4.9055529092       -7.4832547353
 H       -10.8008298942        6.4924620990       -7.7228325603
 H        -8.2116219010        7.7099426804       -5.4159887572
 H        -9.3702207492        8.3155606364       -6.4468520540
 H        -8.1202887049        7.0697141250       -7.0181098999
 H       -10.6949087398        9.0276390443        0.4982619091
 H       -11.3491766423        7.6277530090        1.5858919054
 H       -12.0778152858        7.9070006292        0.0431152624
 H        -8.1868915686        7.9412247915        0.7305983141
 H        -8.2800357346        6.1366502010        0.3156262697
 H        -9.0485813512        6.7453681035        1.7601142562
 H       -13.4140168060        0.7857252199        0.6569688916
 H       -14.9943266093        1.2339511245       -0.1462578425
 H       -14.8752673068        0.3245255059        1.3770737686
 H       -16.5759167429        2.6082492483        1.0548479170
 H       -16.0791569678        3.4882775043        2.4910068417
 H       -16.2747703418        1.8883451145        2.6285701403
 H       -15.6213709299        1.4656947291        7.7358710611
 H       -14.7606698982        1.0994192885        9.2642291397
 H       -15.0329363431       -0.1655785121        7.9254943319
 H       -12.4613244344        2.9596876797        8.4714446551
 H       -14.1236565728        3.3890031294        7.9442524002
 H       -12.8625575474        3.2243792015        6.8025950657
 Na       -7.9636828209        4.9116320447       -1.8703522482
