117

 C       -11.5201309388       -0.0845358670        8.0379917498
 C       -11.6491305016        1.4858158957        7.9308877646
 O       -10.6469769361        2.1716636558        7.9564557180
 C       -13.1017705805        2.1350252811        7.7998201937
 C       -13.7274501333        1.4670048078        6.4713742024
 O       -14.8363684641        0.9888017482        6.5272704510
 C       -12.7952795238        1.5754863624        5.2701752584
 C       -13.5066420139        1.4090205776        3.9071767065
 C       -13.5961537109        2.7859251216        3.0904471953
 O       -12.9907983960        3.7555247555        3.5320915516
 C       -14.2927832942        2.7483775463        1.7274053074
 C       -13.9268485634        3.9979346144        0.9181415773
 O       -14.7556267518        4.8708961948        0.6161897987
 C       -12.5042143393        4.1258654934        0.3219211964
 C       -12.2657013259        5.5217019522       -0.1696047484
 C       -10.8573297050        5.5334322893       -0.8499332886
 O       -10.2443277400        4.5562284395       -1.1484762288
 C       -10.1314743435        7.0118984850       -0.8718017496
 C        -9.4887988401        7.3200875810       -2.2704755797
 O        -8.5388349269        6.6491084232       -2.6524338605
 C       -10.1790881754        8.3288344298       -3.2674872512
 C        -9.5996780945        8.0996452338       -4.6064756553
 C        -9.8691679725        6.5621341113       -5.0581155721
 O       -10.8723794501        6.0363529666       -4.5523760700
 C        -8.9532387905        5.8151324758       -5.9682168495
 C        -8.5436849726        4.6495558811       -5.0333920188
 O        -7.5748234937        4.8101935489       -4.3057591648
 C        -9.4950964234        3.4329442159       -4.8495650088
 C        -8.8156385332        2.0089734722       -5.0096052160
 C        -8.2164997428        1.4036559712       -3.6370709841
 O        -8.4656997714        2.0077554159       -2.6192299178
 C        -7.4471511939        0.0760337247       -3.5780829487
 C        -6.2245548414        0.3377153852       -2.6032403904
 O        -5.1708460363        0.5375272749       -3.1126906471
 C        -6.3175550704        0.5593166961       -1.1296127841
 C        -5.2485730943        1.4164085915       -0.5609183421
 C        -5.8694544759        2.7725665840        0.0031934443
 O        -7.0941554498        2.9317040257       -0.2062991706
 C        -4.9637814297        3.9396194842        0.3931898005
 C        -5.1526515545        5.2121240621       -0.5223749578
 O        -6.1176727514        5.4775102816       -1.2698704375
 C        -3.9458563926        6.1590632627       -0.5148905542
 C        -5.4293565593        4.4084966777        1.8613865454
 C        -3.5028314570        3.6087819262        0.4773737401
 C        -8.3980669408       -1.0573542872       -3.0404576964
 C        -6.9832908240       -0.2813854584       -5.0330345012
 C        -9.6858286810        5.3006232374       -7.2195549733
 C        -7.6965210314        6.4601417102       -6.4825391111
 C       -11.2086027262        8.1287870027       -0.5433310561
 C        -9.0097061099        6.9797793817        0.2048628014
 C       -13.8510320984        1.4747158089        0.8947452223
 C       -15.8269113828        2.7460992525        2.0388724680
 C       -14.0596507003        1.6521807920        8.9405153819
 C       -13.0587419929        3.6643344336        7.7351476842
 H       -11.2761347377       -0.5358869039        7.0424818272
 H       -12.2965661165       -0.6055300978        8.4499001220
 H       -10.6455806079       -0.3796681125        8.6652424732
 H       -12.1524410958        0.7202707024        5.4242931819
 H       -12.3277865975        2.5168408193        5.3942586702
 H       -14.5378692689        1.0421851520        3.9359403237
 H       -13.0063962567        0.6235374409        3.3434863790
 H       -12.4938401107        3.5155776643       -0.5695193628
 H       -11.6775254973        3.7257184598        0.9205341237
 H       -12.2617898354        6.2809928541        0.5825503577
 H       -12.9677481148        5.8934213901       -0.9308430178
 H       -10.0903972915        9.3953269810       -2.8171972680
 H       -11.2320158909        8.0444263581       -3.3754439228
 H        -8.5602716723        8.3213284809       -4.5889735247
 H        -9.8348765514        8.8238335573       -5.3912148834
 H       -10.4280838183        3.4344129475       -5.4731571618
 H        -9.9682712299        3.5963129043       -3.9064476329
 H        -8.0373343359        1.9831350655       -5.7631853966
 H        -9.6432259835        1.3632412460       -5.3245050224
 H        -6.2268042117       -0.5098603075       -0.6832043887
 H        -7.2683356773        1.0103691719       -0.9167595342
 H        -4.5869916791        1.7872015335       -1.3233585732
 H        -4.7279415655        0.8995797020        0.2513796673
 H        -3.1336513495        5.7392269356       -1.0901164575
 H        -3.6677387220        6.1092636993        0.4766268189
 H        -4.2486063551        7.1295864757       -0.8447709640
 H        -4.8088875214        5.1532064468        2.3271192806
 H        -5.3975742435        3.5467891236        2.5012889772
 H        -6.4370127740        4.8105467408        1.8528808743
 H        -3.0211635337        4.2902274664        1.1678580868
 H        -3.0065657504        3.5153708513       -0.5043440950
 H        -3.3664486434        2.6442167805        0.9902543233
 H        -9.1008000325       -1.4303117695       -3.7812502472
 H        -8.8446692747       -0.6870610033       -2.1301744251
 H        -7.7551195011       -1.9127943166       -2.8242909318
 H        -6.4660706393       -1.2678951142       -5.1069785786
 H        -6.3299219764        0.4654190916       -5.4679804134
 H        -7.7908839953       -0.3898001003       -5.7018472017
 H       -10.7549944222        5.0949234505       -7.0021684285
 H        -9.3277193154        4.3620618936       -7.6844689943
 H        -9.6033254895        6.0501117956       -7.9946906262
 H        -7.0998785583        6.9323930990       -5.6806652197
 H        -7.9720846612        7.2031533081       -7.2147466768
 H        -7.1401193592        5.6649988630       -6.8946520113
 H       -10.8890297125        9.1219066628       -0.8106088817
 H       -11.5840623271        8.2184333514        0.4573314569
 H       -12.1502292638        8.0674095590       -1.1986270248
 H        -8.5845238910        7.9874366372        0.2437169508
 H        -8.2789812369        6.1726704849       -0.0979164649
 H        -9.4408226897        6.7823951297        1.1974482296
 H       -12.7840314327        1.3533698318        0.8948013279
 H       -14.2889554210        1.4389373292       -0.1281559553
 H       -14.2780843315        0.6056723224        1.3603319030
 H       -16.4638536795        2.3659359549        1.2719927144
 H       -16.0495766312        3.7429957947        2.2939115890
 H       -15.9366013004        2.2315011071        2.9767516179
 H       -15.1216377936        1.7309806554        8.7596898937
 H       -13.8473176914        2.1076728148        9.9337203382
 H       -13.9736722800        0.5662895273        9.1012518595
 H       -12.1732343238        4.0142950063        8.2833952291
 H       -14.0067062500        4.0842510193        8.0580505042
 H       -12.9592027365        4.0429816236        6.7525450040
 Na       -8.0775389867        4.2752332011       -1.9849304662
