117

 C       -11.7068976278       -0.1310292456        8.4629883923
 C       -11.7740022924        1.2879579002        8.0522149681
 O       -10.7749802664        1.9757371429        7.9031099989
 C       -13.1930684680        1.9001335297        7.6969408733
 C       -13.6355940297        1.2976738408        6.3400454938
 O       -14.6349907475        0.5772335598        6.2524280668
 C       -12.7358110763        1.5864508751        5.1074465556
 C       -13.4079214345        1.2628277394        3.7765132383
 C       -13.7016534361        2.5734079594        3.0609052947
 O       -13.5329803595        3.6626717279        3.5544658291
 C       -14.4902456412        2.5133114721        1.6706197954
 C       -14.1159086330        3.9640388648        0.9227265018
 O       -14.8936358176        4.8017966593        0.7670504639
 C       -12.6228846905        4.1080067850        0.5173607224
 C       -12.1936149775        5.6011420425        0.4652401536
 C       -10.8416757516        5.8107016451       -0.2402514290
 O       -10.1216965672        4.8318078315       -0.4949222545
 C       -10.3136969372        7.3194486462       -0.5476012564
 C        -9.7807600186        7.2596415705       -2.0077089616
 O        -8.8047633427        6.5810512932       -2.2267225329
 C       -10.3135945193        8.2644278105       -3.0649093758
 C        -9.6699933709        8.0014129365       -4.4302024286
 C       -10.1281417981        6.6927479484       -4.9634819088
 O       -11.2653258640        6.3902936660       -4.7231322622
 C        -9.2144035754        5.7627556339       -5.9783512741
 C        -8.7040990586        4.5894850978       -5.1950861070
 O        -7.7676388136        4.8288821940       -4.4570413096
 C        -9.2359971442        3.1504378457       -5.3696487936
 C        -8.2460770057        2.0619374316       -5.2904813154
 C        -7.9295978088        1.5923857921       -3.8906177316
 O        -8.2603452269        2.2238671587       -2.8796872031
 C        -7.1541224212        0.2811664513       -3.7064288838
 C        -6.0100374844        0.6116195229       -2.6713749498
 O        -4.8336495644        0.7580870331       -3.0102534063
 C        -6.3811058342        0.5164451993       -1.1200859975
 C        -5.3398720833        1.2456756809       -0.2792332517
 C        -5.8255796435        2.7517963819       -0.1526201602
 O        -6.9122879268        3.0405217511       -0.4659144560
 C        -4.7335856491        3.8757876518        0.3001996980
 C        -4.8179236530        5.0718859843       -0.7433997162
 O        -5.7644507655        5.5428421956       -1.2905198624
 C        -3.3953599623        5.7424830835       -1.0360954138
 C        -5.1203048468        4.5245997233        1.6290111535
 C        -3.2654894737        3.3429282091        0.3341732565
 C        -8.1604924968       -0.8419758750       -3.1390593820
 C        -6.5345768588       -0.3022145664       -5.0164243597
 C       -10.0404328814        5.4000476714       -7.1487168570
 C        -8.0144753978        6.6456481021       -6.4126593047
 C       -11.3574333731        8.3391650359       -0.2562931092
 C        -9.1057189361        7.4733581008        0.4128126557
 C       -14.1902966878        1.2459749762        0.7568976856
 C       -15.9638767253        2.5676538372        2.0227345113
 C       -14.2712336821        1.5253838665        8.6627114626
 C       -13.0724405477        3.4997900754        7.5711563011
 H       -12.5629410269       -0.6438610593        8.0734124711
 H       -11.8599272728       -0.2664541457        9.5858439746
 H       -10.8827860450       -0.6371943959        8.0690942309
 H       -11.8569240436        0.9556887999        5.2374133433
 H       -12.4890247540        2.5951391270        5.2210478840
 H       -14.3259463605        0.6390566998        3.8477812882
 H       -12.7612472423        0.8255879900        3.0253537876
 H       -12.3026863795        3.5762936876       -0.3535511374
 H       -12.0934061419        3.5922316772        1.3062458233
 H       -12.1324612275        6.1480630626        1.4323782651
 H       -12.8997721248        6.1325475696       -0.1896385947
 H       -10.0638202327        9.3038481214       -2.8347082476
 H       -11.4520113702        8.1435682147       -3.2089893815
 H        -8.5545265343        8.1152745131       -4.2950107005
 H        -9.9077333867        8.7934977356       -5.1421518613
 H        -9.8660089388        3.0726183795       -6.2601668431
 H        -9.9188398675        3.0226611063       -4.5192240883
 H        -7.3469785696        2.4089789846       -5.8015012188
 H        -8.5589255022        1.1340307984       -5.7829122823
 H        -6.5557097594       -0.5216953362       -0.8174430665
 H        -7.4009040101        1.0340338008       -1.0763322355
 H        -4.3657529263        1.3384041059       -0.7913207285
 H        -5.2090388587        0.6938836351        0.6182679327
 H        -2.8282616417        4.9679088115       -1.4490775101
 H        -2.8918118099        6.1161800623       -0.1174986579
 H        -3.5337300765        6.5368996647       -1.7226795738
 H        -4.3089326697        5.0050599707        2.1879056806
 H        -5.5103031199        3.7305078029        2.2689504369
 H        -5.9471497736        5.1878597501        1.4667949109
 H        -2.6150066882        4.1881077313        0.6156739553
 H        -2.9512404911        3.1914600572       -0.6670154726
 H        -3.1510139018        2.4046069705        0.8755145493
 H        -8.8553884804       -1.0628709059       -3.9078082739
 H        -8.7253171161       -0.5363649453       -2.2462798273
 H        -7.4980306684       -1.6600525364       -2.9149401730
 H        -5.9548611156       -1.1754808229       -4.7928382629
 H        -5.9079292439        0.3925510999       -5.5716353833
 H        -7.2119795262       -0.6954370469       -5.7814801535
 H       -11.0121474876        4.9588879445       -6.8645340915
 H        -9.4735738706        4.7093316055       -7.8292078779
 H       -10.3040393182        6.3044126210       -7.7647798400
 H        -7.5711781563        7.0399828299       -5.5110170517
 H        -8.3846242336        7.4258484809       -7.1070596940
 H        -7.2618804417        6.0731974863       -6.9560079422
 H       -11.0624908682        9.3748259733       -0.4441742660
 H       -11.5891812347        8.2667478883        0.8389602535
 H       -12.3046321428        8.1315323377       -0.7088475235
 H        -8.8221077096        8.5321009812        0.4532850722
 H        -8.3036760136        6.8874580451       -0.0244932158
 H        -9.3760434633        7.1153797387        1.4232074221
 H       -13.0874693902        1.1278155010        0.5310890113
 H       -14.7118888666        1.4096188874       -0.1253415474
 H       -14.5006477581        0.2828259602        1.1743139951
 H       -16.3456533415        3.3962117345        1.4472374488
 H       -16.1674695639        2.8307440146        3.0646824293
 H       -16.4890600222        1.6665894221        1.7279200279
 H       -15.2211264657        2.1194814406        8.4576617195
 H       -14.0036032646        1.7814576582        9.6793085661
 H       -14.5429301940        0.4520334734        8.6158973847
 H       -13.3499137785        4.0298744764        8.4609775557
 H       -13.7918171894        3.8696020309        6.8666334996
 H       -12.0767824716        3.8176799638        7.2393820133
 Na       -8.0631435075        4.4965519218       -1.9815385816
