117

 C       -11.7160889707       -0.0765662300        7.9554744992
 C       -11.7105120124        1.4092843945        7.8861477784
 O       -10.7797978272        2.1619076866        7.9131951426
 C       -13.2178674576        1.9840622693        7.7669163605
 C       -13.7152742508        1.3937079301        6.4878492784
 O       -14.7176025829        0.7191347962        6.2856285443
 C       -12.6527079281        1.4483403498        5.1882643372
 C       -13.4041517082        1.4791104502        3.8776817542
 C       -13.6087930176        2.8571435638        3.1714810308
 O       -13.1126778492        3.8429420675        3.5809631067
 C       -14.4056844902        2.6819787292        1.6872538868
 C       -13.9871124210        3.9956709459        0.9066750697
 O       -14.7757273699        4.8342849651        0.7232592737
 C       -12.5709224211        4.0927983619        0.5195012913
 C       -12.2000715324        5.4453951317        0.0796181193
 C       -10.7896184910        5.6286968034       -0.5559423615
 O       -10.1723069434        4.6658649791       -1.0453199969
 C       -10.2841183847        7.0580992734       -0.6555209450
 C        -9.6333529610        7.1496423876       -2.1169018974
 O        -8.7285560115        6.4404568370       -2.4841508914
 C       -10.1208619171        8.2901953230       -3.0959881228
 C        -9.6377776429        8.0699486370       -4.5830541436
 C        -9.9517917534        6.6693914171       -4.9828835408
 O       -11.0267499878        6.1462636789       -4.7488296825
 C        -9.0429688062        5.8040349133       -5.9864700757
 C        -8.6035469670        4.5803901421       -5.1306244530
 O        -7.6978184451        4.7228473308       -4.3225367814
 C        -9.4195739990        3.2769779104       -5.0481511229
 C        -8.5515895549        2.0274189291       -5.0833705525
 C        -8.1517066480        1.5178028749       -3.7079198848
 O        -8.4638754354        2.0414519734       -2.6419371989
 C        -7.2893043667        0.1680199643       -3.6526956280
 C        -6.1396284975        0.4624634315       -2.7366759432
 O        -4.9883123044        0.5471338261       -3.1305953263
 C        -6.3704482813        0.4745240059       -1.2181971305
 C        -5.4172319083        1.4083637387       -0.4648134894
 C        -5.9370910521        2.8128166493       -0.2180353069
 O        -7.0660387107        3.1511367063       -0.2798704452
 C        -4.8745875348        3.9283794249        0.2922000228
 C        -4.8869471599        5.2085110156       -0.6906947068
 O        -5.9418365975        5.5325053795       -1.0998870711
 C        -3.6785348083        6.2252575592       -0.7902681714
 C        -5.4717160978        4.3453002704        1.5992367724
 C        -3.4382835339        3.3112325215        0.4653794783
 C        -8.2557694297       -0.9414142296       -3.0759042023
 C        -6.6756475995       -0.3644941483       -4.9275041127
 C        -9.8946591758        5.3601607213       -7.1324631467
 C        -7.8111260594        6.5955357172       -6.5163643911
 C       -11.3078169524        8.2145014025       -0.4173199521
 C        -9.1479419959        7.2440982294        0.4012216317
 C       -13.8966514904        1.4746997394        0.9330117842
 C       -15.9659254120        2.6368820952        1.9178185250
 C       -14.0497536160        1.7090405429        9.0490998335
 C       -13.1052058786        3.5412192331        7.6102629809
 H       -12.0043764230       -0.5767550701        7.0580702475
 H       -12.4871132000       -0.3687304946        8.7756522397
 H       -10.7725597054       -0.5314277899        8.2125232482
 H       -12.0949146895        0.5202308691        5.2589340034
 H       -12.0562921996        2.3863458079        5.3573284570
 H       -14.3779326094        1.0221313991        3.9306312852
 H       -12.8593568752        0.8124823219        3.1713062717
 H       -12.4907318144        3.3826760888       -0.3311562526
 H       -11.8719992219        3.6538039557        1.2153286687
 H       -12.2359848986        6.2095806983        0.8980262161
 H       -12.8708583093        5.8273449980       -0.7015047712
 H        -9.7553558393        9.1831610063       -2.6907383076
 H       -11.2110688533        8.3197489542       -3.1622403113
 H        -8.6487630204        8.5220422195       -4.8734469483
 H       -10.2020476760        8.6864117263       -5.3042886346
 H       -10.2236796212        3.2489122591       -5.7426085319
 H        -9.9931820498        3.2502255604       -4.0729934858
 H        -7.5504146578        2.2184717360       -5.4978546096
 H        -8.9969291465        1.1922057320       -5.6107461397
 H        -6.1384654131       -0.5294148389       -1.0055876979
 H        -7.4785012953        0.6752431741       -1.0789479176
 H        -4.4215794741        1.4055168418       -0.9766936231
 H        -5.3216651548        1.1094450696        0.5947655377
 H        -3.0261526636        5.8747412775       -1.6481686022
 H        -3.0552731684        6.2322466727        0.1251690885
 H        -4.2465225461        7.1083968650       -1.0473958018
 H        -5.0935517457        5.3240213121        1.9629517132
 H        -5.1982464854        3.6226433988        2.3814147822
 H        -6.5651649614        4.4114264132        1.5079892674
 H        -2.6790901315        4.0270635226        0.8054491391
 H        -3.1361512642        2.9629924837       -0.5171214590
 H        -3.4561483795        2.4409066566        1.1145630214
 H        -8.9440003197       -1.0785468733       -3.9317093470
 H        -8.8053353700       -0.6160867236       -2.1766977898
 H        -7.7473976495       -1.9082413987       -2.9675815154
 H        -6.2678795317       -1.3115876791       -4.8069804860
 H        -6.0070502371        0.3133242514       -5.4185248490
 H        -7.4336241654       -0.6172030056       -5.7182559642
 H       -10.7959827361        4.9610273084       -6.7705682117
 H        -9.4198517645        4.5985606844       -7.6847268310
 H       -10.1122555912        6.1254152740       -7.8580462730
 H        -7.0002421497        6.2985901619       -5.9265571063
 H        -7.9896977797        7.6277325133       -6.3371291615
 H        -7.5589651247        6.4201790221       -7.6115656524
 H       -10.8725193359        9.2387148701       -0.5789316859
 H       -11.8038776362        8.1935578529        0.5789065847
 H       -12.1286704343        8.2111867267       -1.0559917521
 H        -8.5870842620        8.1616611685        0.1566422022
 H        -8.5769602791        6.3698639501        0.2534747406
 H        -9.5120459552        7.3446844965        1.4343140887
 H       -12.8139805693        1.4535478993        1.0144031734
 H       -14.2811640644        1.3213752232       -0.0655394248
 H       -14.1888763847        0.5671674328        1.4985557348
 H       -16.5505123090        3.0578909690        1.0635890596
 H       -16.2733788284        3.0952226955        2.8635616239
 H       -16.1643374683        1.5969368832        2.0385724151
 H       -14.9508693581        2.3059824545        9.0255959857
 H       -13.5117209958        2.0526749459        9.9046906388
 H       -14.4441343772        0.7280750154        9.2210833968
 H       -12.8267576310        3.9941433499        8.5571228805
 H       -13.9932179639        4.0095407968        7.1582880129
 H       -12.2653128633        3.8029310516        6.8978087297
 Na       -7.9245912825        4.4487312841       -1.8352782339
