117

 C       -11.2027391531        0.2377954079        8.4836307365
 C       -11.4423236773        1.6276326665        8.0175837682
 O       -10.5233841735        2.2744244720        7.6068517794
 C       -12.9546875328        2.2215832850        7.9932430991
 C       -13.6109735607        1.9329530452        6.6172498242
 O       -14.8055665383        1.6989244486        6.4905734654
 C       -12.7774120919        2.1815146857        5.3930964886
 C       -13.6168332107        1.9462029019        4.1513875173
 C       -13.2232459266        2.8668048065        2.8994326688
 O       -12.1087278730        3.3473862506        2.8290963487
 C       -14.2455619029        2.8556376814        1.7330732268
 C       -13.9234177621        4.1080416815        0.7542742790
 O       -14.6952101789        4.9703339175        0.4719104607
 C       -12.5664316769        4.0888339727        0.0021365677
 C       -12.2760369294        5.5228256594       -0.3606443936
 C       -10.9462278395        5.5547366314       -1.0788712133
 O       -10.3919708278        4.5727876862       -1.5133684178
 C       -10.1462749508        6.9046493082       -1.0102098441
 C        -9.4970220675        7.0511198242       -2.4475067254
 O        -8.5257367401        6.3998707841       -2.7479056793
 C       -10.1364016913        8.0530728358       -3.4388004709
 C        -9.4335925815        7.9242722065       -4.8366328590
 C        -9.7425202761        6.5285406713       -5.4059161752
 O       -10.8820186744        6.0706231570       -5.3144248472
 C        -8.6431970615        5.5771262478       -5.9779235689
 C        -8.5268713512        4.2186636886       -4.9344902949
 O        -7.5274593970        4.0277991592       -4.2658905208
 C        -9.7171478820        3.2948976118       -4.8567360575
 C        -9.3367758218        1.8210142242       -4.7662466689
 C        -8.7094351133        1.3687679994       -3.4338824135
 O        -8.8077683436        2.0201143733       -2.4254030305
 C        -7.8956336210        0.0281304046       -3.3992729976
 C        -6.4843195588        0.4573312590       -2.7196326127
 O        -5.5752135608        0.8138388601       -3.3976017136
 C        -6.3751930969        0.4726065628       -1.1403301114
 C        -5.3395045518        1.5618734758       -0.6154063852
 C        -5.9847139418        2.9081673228       -0.1548028830
 O        -7.1742327910        3.1363950235       -0.1773829182
 C        -5.0573234909        3.9355335366        0.5060293653
 C        -5.1881349576        5.3083208320       -0.1928316585
 O        -5.7862943810        5.3997207298       -1.2601798143
 C        -4.5441158930        6.5557405999        0.4247547637
 C        -5.6683542562        3.9531797718        1.9801177014
 C        -3.6253820382        3.5707548648        0.7038343510
 C        -8.6826420314       -1.0003807695       -2.4759310676
 C        -7.5018350307       -0.5461869175       -4.7335702294
 C        -9.0233820089        5.0644740779       -7.4336474995
 C        -7.2213455183        6.1418535366       -6.0103378633
 C       -11.0070936149        8.0828833007       -0.6406940918
 C        -9.0051069336        6.7600306892        0.0020173887
 C       -13.9862800904        1.6397702298        0.7345869428
 C       -15.7496082175        2.9692361656        2.0187065258
 C       -13.9480487108        1.6336377471        9.0452885771
 C       -12.7846651120        3.7641571653        8.2231009019
 H       -10.0970027387        0.1135407051        8.6419753343
 H       -11.4706389050       -0.5478869998        7.8764075061
 H       -11.7484405841       -0.0299631863        9.4118324003
 H       -11.7701084985        1.5956479000        5.4455311258
 H       -12.5727331520        3.2759804723        5.4281744785
 H       -14.7142761674        2.1465762013        4.3239336166
 H       -13.6159543578        0.8627238742        3.9969922416
 H       -12.7847704325        3.5066884455       -0.9004006305
 H       -11.7884491886        3.6794305451        0.6754484251
 H       -12.2943842487        6.1570963122        0.5287255525
 H       -13.0672631104        5.8759066961       -1.0385771519
 H       -10.1176520116        9.0254451323       -2.9887122648
 H       -11.1621042987        7.8313317692       -3.6351916321
 H        -8.3636493140        8.1992033720       -4.8213572480
 H        -9.8755072688        8.7421360664       -5.4929415536
 H       -10.4432438687        3.5100342104       -5.7101777690
 H       -10.2926819589        3.5537298108       -3.9647768430
 H        -8.7126553339        1.4893315171       -5.6064869609
 H       -10.2070906290        1.1277887458       -4.7333137976
 H        -5.8730636433       -0.4928340227       -1.0511913696
 H        -7.2985748476        0.5362514493       -0.6487120059
 H        -4.5233808082        1.6885993772       -1.3753292783
 H        -4.8600120402        1.2708945129        0.3118588947
 H        -4.5902118763        6.2985062988        1.5361425885
 H        -5.0838148604        7.4443763597        0.1434207494
 H        -3.4301204842        6.4992453136        0.2314225024
 H        -5.1520701552        4.5529286684        2.7364103390
 H        -5.6600570825        2.9244270666        2.4008458394
 H        -6.7302649702        4.2431581485        2.0366071937
 H        -3.0592450289        4.2643654400        1.3592155735
 H        -3.0185333480        3.5829628219       -0.2348612644
 H        -3.5383903708        2.5412566524        1.1007749234
 H        -9.5044699447       -1.3671161040       -3.0468697164
 H        -9.1420949901       -0.5551523567       -1.6069185498
 H        -8.0485518333       -1.8078842732       -2.1292555028
 H        -6.7757633787       -1.3854483296       -4.4526288272
 H        -6.8500964106        0.1538956506       -5.3008513077
 H        -8.2989585707       -0.8719357080       -5.3759287490
 H       -10.1394880346        5.0204593753       -7.4625905849
 H        -8.6473934997        4.0299248103       -7.6565053473
 H        -8.8084188307        5.7785026255       -8.2285281081
 H        -7.0767295390        6.8077875137       -5.1052144796
 H        -7.0768288838        6.7431187527       -6.9262848377
 H        -6.4262115401        5.4304313002       -6.0742098722
 H       -10.5211191736        8.9951977855       -0.7583277016
 H       -11.3953794775        8.1568402632        0.3271724698
 H       -11.9054818419        8.1732419936       -1.2989760861
 H        -8.4654864493        7.6276333629       -0.2595173491
 H        -8.3563988766        5.9108220514       -0.2643932558
 H        -9.3416265717        6.7496911018        1.0128894574
 H       -12.9437191173        1.4168437793        0.4431832092
 H       -14.4749900196        1.8302540994       -0.2231863482
 H       -14.4261070330        0.7626644296        1.1816014011
 H       -16.3714588000        2.4347902035        1.2975148165
 H       -15.9834856541        4.0513963755        2.0334964374
 H       -16.0015425176        2.4768138015        3.0008158998
 H       -14.8892960920        2.1823133914        9.0076316595
 H       -13.6710153761        1.7508893515       10.1005981073
 H       -14.1226125802        0.5607796264        8.9582991017
 H       -13.0230437936        3.9134760409        9.2762222990
 H       -13.5263831114        4.3332920173        7.7051595434
 H       -11.7976136083        4.0486240373        7.9955361369
 Na       -7.9246003418        4.1746487123       -1.9859323792
