117

 C       -11.0957976548        0.6632963794        8.6951438294
 C       -11.3473220120        1.7262602795        7.6422239444
 O       -10.6516437885        1.9111004120        6.6947496202
 C       -12.5750038885        2.7096323450        7.9201358683
 C       -13.5957242088        2.3798665192        6.7456681820
 O       -14.3524298026        1.4144386369        6.7948948815
 C       -13.3755695159        3.1658870452        5.4785587532
 C       -14.4261754638        3.0836620364        4.3602223991
 C       -13.5568614144        3.0475589469        2.9983295087
 O       -12.3475802133        3.0980254922        3.0611842741
 C       -14.2342938996        2.8668536439        1.6809063486
 C       -13.9592137312        4.1492812630        0.9281733095
 O       -14.7572549812        5.0076893144        0.8115878877
 C       -12.5258754483        4.3933452403        0.3667817723
 C       -12.3593915698        5.6724101083       -0.5126892965
 C       -10.8394015072        5.8234693516       -0.9524202006
 O       -10.1474616794        4.8316018092       -0.7294410644
 C       -10.3121632879        7.1626676998       -1.4370141360
 C        -9.5978848081        6.9104780855       -2.8746077314
 O        -8.7315703042        6.0825215721       -2.9895946395
 C       -10.0443003150        7.7927464232       -4.0100789818
 C        -9.0450070772        7.5011146647       -5.2047065492
 C        -9.4029113238        6.1901966022       -5.8635407050
 O       -10.5422672705        5.8003721355       -6.0014943622
 C        -8.1269327892        5.1832224710       -6.2385193584
 C        -8.2841850448        4.0624478599       -5.1826485137
 O        -7.5213229434        3.8701176415       -4.2321784206
 C        -9.5010509933        3.1282447419       -5.2779502479
 C        -9.1525955833        1.6855123181       -5.0490280948
 C        -8.9265031372        1.3730160330       -3.5521602112
 O        -9.2284443112        2.1827305123       -2.6847189409
 C        -8.2728990673        0.0044245421       -3.1269179754
 C        -6.9268879311        0.4702855063       -2.5292074799
 O        -6.0983707273        0.9859498125       -3.2376989801
 C        -6.7165487586        0.4277272099       -0.9958815236
 C        -5.5056459872        1.2143979698       -0.4076174150
 C        -6.0033919011        2.5318771440        0.2067576483
 O        -7.1754072545        2.7325641713        0.2775986506
 C        -4.9762485262        3.6188945159        0.8017043210
 C        -5.3413756213        5.0624317004        0.2077922681
 O        -6.3451952120        5.1743829352       -0.4433584460
 C        -4.5986810893        6.3297363148        0.5294972687
 C        -5.0396342196        3.6925781266        2.3568138497
 C        -3.5435546125        3.2814032725        0.3107839367
 C        -9.2023914752       -0.7142807036       -2.1334411293
 C        -8.0418348120       -0.9527162274       -4.2955276649
 C        -8.2971407964        4.5967633447       -7.7000273781
 C        -6.7478749681        5.8561986547       -6.1012707993
 C       -11.4626034590        8.2011249014       -1.4395309218
 C        -9.0939129880        7.6557673460       -0.4837383734
 C       -13.6086024827        1.6355503710        1.1305464794
 C       -15.7613319150        2.7810162390        1.7847348892
 C       -13.3287266260        2.5995684087        9.2121856445
 C       -11.9064048959        4.1255839200        7.9959744908
 H       -10.0258204665        0.3527340153        8.7413490813
 H       -11.6396617872       -0.1797648123        8.3928659888
 H       -11.2444800406        0.8567663891        9.7517154482
 H       -12.3753221669        2.8683011490        5.1379962398
 H       -13.1683165008        4.1795479246        5.8844704493
 H       -15.0597704598        3.9249031378        4.6081964304
 H       -14.8832303709        2.0579717386        4.5615692094
 H       -12.1693433513        3.5101171254       -0.1748641228
 H       -11.8775103145        4.4488878955        1.2460197475
 H       -12.6047580328        6.5727869485        0.1069396505
 H       -12.9849767411        5.6688544576       -1.4183394593
 H       -10.1525221576        8.7629546350       -3.6808565998
 H       -11.0380597553        7.4721968241       -4.2956364661
 H        -7.9868756134        7.4013677407       -4.8071088659
 H        -9.3756814571        8.1567353967       -5.9629377209
 H        -9.8702270286        3.1195074452       -6.2702760861
 H       -10.2216122089        3.4343522630       -4.4705947114
 H        -8.2847716861        1.3622520425       -5.6743955813
 H        -9.9731657455        1.0026409675       -5.3315354190
 H        -6.7075291933       -0.5871255256       -0.7988524695
 H        -7.6475636371        0.7459954747       -0.4906337199
 H        -4.6443408128        1.3266075331       -1.0519610724
 H        -5.0535169491        0.7125027855        0.4913517868
 H        -5.0493299450        7.1774745245       -0.1142907789
 H        -3.5703942179        6.0775358568        0.3094030256
 H        -4.6510800582        6.3865503084        1.6730900472
 H        -4.3470020135        4.3025935334        2.9071759517
 H        -4.9697076009        2.6951481874        2.7484047344
 H        -5.9567406842        4.0359134633        2.7462729014
 H        -2.8654428452        4.1199062004        0.6384424631
 H        -3.4089354404        2.9014452916       -0.6789106618
 H        -3.0792387724        2.4950723843        0.9349734279
 H        -9.9900036933       -1.1849985198       -2.6682007396
 H        -9.6521162620       -0.0560208144       -1.3687298755
 H        -8.7834988938       -1.5590039764       -1.6021679222
 H        -7.6449033782       -1.8914097155       -3.8640753919
 H        -7.2315833357       -0.5780446180       -4.9477585874
 H        -9.0068692934       -1.0449304002       -4.8090557054
 H        -9.0910936101        3.8275098652       -7.7696287349
 H        -7.3287334666        4.1448120301       -7.9777573111
 H        -8.6102019851        5.4232131167       -8.3638599004
 H        -6.4396309287        5.7456165442       -5.0228360146
 H        -6.6398064389        6.9565584691       -6.3181143260
 H        -5.9939728300        5.3069400719       -6.5472666173
 H       -11.1775577974        9.1415102278       -1.7914274260
 H       -11.7537389819        8.3215376101       -0.4142006760
 H       -12.3305705315        7.8524127067       -2.0432122081
 H        -9.0986956524        8.7420549583       -0.4922608663
 H        -8.1570329553        7.1461879811       -0.8781423218
 H        -9.2474489804        7.3431161482        0.5546568359
 H       -12.4933323915        1.6969743773        0.9369569666
 H       -14.1013915078        1.4323605561        0.2405191284
 H       -13.8087931514        0.7449382630        1.7393476252
 H       -16.1225672097        2.9345415487        0.8156542052
 H       -16.2404989709        3.4817290025        2.4611533219
 H       -16.0316371435        1.7781501676        2.1486436713
 H       -14.0589821124        3.4870212458        9.3392265885
 H       -12.5958415689        2.6582470243       10.0194616412
 H       -13.8775569062        1.6417118862        9.3422679012
 H       -11.1984450178        4.0455309457        8.7897695990
 H       -12.6965368215        4.8221243113        8.1546634814
 H       -11.3297189712        4.3929259896        7.0979966736
 Na       -8.0067424292        4.0707242429       -1.7698980043
