117

 C       -11.1423155682        0.4714713521        8.7381275425
 C       -11.3543935383        1.6624206860        7.8545578744
 O       -10.5559177513        1.9522913122        7.0374753762
 C       -12.6875242274        2.5315263580        8.0429911746
 C       -13.5459843765        2.3479704697        6.7733915232
 O       -14.4595786241        1.5186915250        6.7132696926
 C       -13.1644557496        3.2433208663        5.5514280093
 C       -14.0820181317        2.8147149204        4.2955171041
 C       -13.4523879695        3.0576284418        2.8412877284
 O       -12.2931329148        3.2628126251        2.7712411323
 C       -14.3286428797        2.8247223540        1.5658638067
 C       -13.9019031333        4.1850262071        0.7694035810
 O       -14.5937635070        5.1325185063        0.7877279368
 C       -12.5775318321        4.0702099736       -0.0071177960
 C       -12.2277968146        5.4860198541       -0.5539443892
 C       -10.7383350650        5.7104524321       -1.0106596445
 O       -10.0505447557        4.7131349163       -0.9494529428
 C       -10.1252459299        7.1054568806       -1.2851191935
 C        -9.4996219826        6.9383564164       -2.6571865639
 O        -8.5600537120        6.2003082246       -2.8559945115
 C       -10.1054017347        7.7430256185       -3.8623079903
 C        -9.2923322612        7.6031292953       -5.1175170288
 C        -9.4620929193        6.2063662264       -5.7338581505
 O       -10.5931884701        5.7574047230       -5.9300665231
 C        -8.2111458756        5.2731695557       -6.2033226894
 C        -8.3572455191        4.0223398374       -5.2296591022
 O        -7.6035728578        3.9458664099       -4.2447439471
 C        -9.6435457425        3.1476848807       -5.2956078798
 C        -9.2819030837        1.7129687142       -4.9726357169
 C        -8.9182137397        1.3716553988       -3.4943707899
 O        -9.3495608448        2.0189662920       -2.5387877089
 C        -8.1593005201        0.0481859547       -3.1975141484
 C        -6.8618793601        0.5948258844       -2.6001823218
 O        -6.0093048973        1.1216620181       -3.3401367750
 C        -6.6270026937        0.5461620906       -0.9773853700
 C        -5.5003664174        1.4612630295       -0.6291018188
 C        -6.0401036967        2.7419059216        0.0791114621
 O        -7.2072588935        2.8512933509        0.2038424877
 C        -5.0189236206        3.7231445651        0.6841960333
 C        -5.3181997481        5.1620549521        0.1666185594
 O        -6.2976453794        5.3899301564       -0.5086076315
 C        -4.3121659133        6.2656845867        0.6309456341
 C        -5.3104798580        3.6350711899        2.2898098504
 C        -3.5878756861        3.4479831191        0.4152315031
 C        -9.0245175134       -0.7922958427       -2.1728713790
 C        -7.7980626651       -0.8457116884       -4.4251471156
 C        -8.5772843509        4.8527849185       -7.6449136080
 C        -6.8758228100        5.9372995193       -6.0885133723
 C       -11.2594989730        8.1213009098       -1.2099204975
 C        -9.1422144955        7.3714508415       -0.0898003903
 C       -13.7522758196        1.6729962893        0.7603264687
 C       -15.8143041733        2.6827033844        1.6553765390
 C       -13.4158138082        2.1705344348        9.3424515643
 C       -12.2742372389        3.9952770431        8.3296521076
 H       -10.4566747021       -0.3288035374        8.3573680235
 H       -12.0127495402       -0.0321756978        8.9510546566
 H       -10.5575467666        0.7437679689        9.6473713871
 H       -12.1160351554        3.3048717373        5.2904514945
 H       -13.3404169484        4.2296648995        5.8479238163
 H       -15.0738662188        3.2517765753        4.3915312935
 H       -14.1338219374        1.7259003217        4.2367092358
 H       -12.7529750505        3.3971283725       -0.8438014240
 H       -11.8310900204        3.6770365598        0.6731676258
 H       -12.4197825646        6.2148532272        0.2834592991
 H       -12.8461021576        5.7547305350       -1.4032490808
 H       -10.3437316089        8.7964995640       -3.6975017872
 H       -11.1379694597        7.2543804532       -4.0333084732
 H        -8.2494548525        7.7110602953       -4.8593551084
 H        -9.7999145314        8.2889196814       -5.7509883064
 H       -10.0079891939        3.1085702528       -6.3203978521
 H       -10.2831347034        3.5514947574       -4.5447654441
 H        -8.5617321768        1.2924619104       -5.6643963571
 H       -10.1913510050        1.1381917923       -5.0857759830
 H        -6.3916109279       -0.4642432477       -0.6054738685
 H        -7.6136982999        0.8575011053       -0.4602285395
 H        -4.9415539265        1.6672036407       -1.5779824294
 H        -4.7384815271        1.0325377773       -0.0192899272
 H        -4.7241271691        7.2071035121        0.2204100996
 H        -3.3501185561        6.0645964653        0.3773750314
 H        -4.4724093876        6.3247350916        1.7095529066
 H        -4.6468297826        4.3638906389        2.8041087510
 H        -5.0810497502        2.6835844268        2.8160599946
 H        -6.3202637188        3.8804922554        2.6530208465
 H        -2.9431921963        4.1190497178        0.9923770380
 H        -3.3764485477        3.6977037596       -0.6197152249
 H        -3.2088263612        2.4595550185        0.5686896965
 H        -9.8212562138       -1.3413795656       -2.6196857599
 H        -9.3972677848       -0.2108634437       -1.3232636918
 H        -8.4352675094       -1.6258530711       -1.7544954786
 H        -7.2833440755       -1.7711451609       -4.0511189481
 H        -7.2099865384       -0.2882050392       -5.1551893971
 H        -8.7055370272       -1.2316927036       -4.8190739373
 H        -9.6457214154        4.8692812629       -7.8332768846
 H        -8.1713206990        3.8865413774       -7.9208023705
 H        -8.0612637912        5.5431644689       -8.2573543863
 H        -6.6978482360        6.5261592974       -5.1620124103
 H        -6.8529573954        6.6745816620       -6.8891646736
 H        -6.0864323095        5.2558167762       -6.1773199466
 H       -10.8067313787        9.0622513967       -1.4644568097
 H       -11.6403715979        8.2486198566       -0.1951903386
 H       -12.1586207601        8.0233765298       -1.9436457242
 H        -8.3883351039        8.0385306477       -0.3815250655
 H        -8.7745601689        6.4082868885        0.2835468068
 H        -9.6810551514        7.9130406961        0.6454634018
 H       -12.6687069361        1.5232545699        0.9578488028
 H       -14.0887560503        1.5886189570       -0.2522530310
 H       -14.1488409315        0.7576260401        1.2061098590
 H       -16.2997177192        2.4167435301        0.7209949293
 H       -16.2564743277        3.6491922781        1.9721097284
 H       -16.0105799953        1.8924311176        2.4337650729
 H       -14.3107894745        2.7763071415        9.4140178868
 H       -12.8137324289        2.3582988957       10.1988610475
 H       -13.8167614418        1.1862629348        9.3893537871
 H       -11.8761440481        3.9836075730        9.3550151234
 H       -13.1844304296        4.5826356550        8.2090325997
 H       -11.5068435411        4.3476383872        7.6572420815
 Na       -8.0394993662        4.0249816847       -1.8336923297
