117

 C       -11.0094949345        0.6010562567        8.6106058824
 C       -11.3941992427        1.7544103339        7.7290821774
 O       -10.8274694110        1.8520716948        6.6235525643
 C       -12.5182895622        2.8292449699        7.9803444488
 C       -13.5246303375        2.5797752179        6.8168585536
 O       -14.2548860821        1.6333240001        6.8621097128
 C       -13.4857169083        3.5455477756        5.6022335109
 C       -14.2899828481        2.9901570937        4.4032186085
 C       -13.5616066606        2.9819824371        3.1871400023
 O       -12.3278220144        3.0884158430        3.0389425089
 C       -14.3224165381        2.8570446392        1.7076541964
 C       -14.0080553744        4.1849180595        0.9579453442
 O       -14.9136509125        5.0060307025        0.6882548308
 C       -12.5575123418        4.4243058125        0.5450110326
 C       -12.2354381597        5.6879305287       -0.2779336100
 C       -10.8415790563        5.7984384998       -0.8805621653
 O       -10.0244136721        4.9480675131       -0.7082469295
 C       -10.3444128965        7.2604718087       -1.5818220187
 C        -9.7585255974        6.9669371967       -2.9392398731
 O        -8.9527585247        6.0507784897       -3.0882806114
 C        -9.9718744377        7.8679832889       -4.2393936075
 C        -8.9993297008        7.6488231704       -5.3862193520
 C        -9.1892119933        6.0988739879       -5.8966910412
 O       -10.3199035736        5.8099209907       -6.1626170452
 C        -8.0441534295        5.1271260040       -6.2309243069
 C        -8.2382374023        3.9935272612       -5.1226266621
 O        -7.4620447367        3.9401590531       -4.2252277760
 C        -9.4729184096        3.1784617991       -5.2198807871
 C        -9.1360874200        1.6699493155       -4.9881474558
 C        -8.8377098603        1.3442783037       -3.4814396319
 O        -9.2681511791        2.1398966403       -2.6855142909
 C        -8.3454513995       -0.0383052145       -3.0053561369
 C        -6.9285155989        0.3143483628       -2.3246325227
 O        -6.0633060739        0.6969352585       -3.0386652543
 C        -6.7205265657        0.2528901077       -0.8178852913
 C        -5.5824304324        1.1317203287       -0.3330155587
 C        -5.9798534369        2.5374638418        0.1586997587
 O        -7.2068261326        2.7479065798        0.3283132159
 C        -5.0006825432        3.5772395796        0.6889056931
 C        -5.3708165116        4.9899923650        0.0400290462
 O        -6.3453491436        5.1952016193       -0.6872736775
 C        -4.5459795410        6.1641859284        0.6476920759
 C        -5.0598888364        3.5018043238        2.2263509314
 C        -3.5140713515        3.3360181469        0.2798497281
 C        -9.3574358175       -0.6049785594       -2.1195364852
 C        -8.0014455183       -0.9990683229       -4.1824447696
 C        -8.1525402124        4.6070958917       -7.6737452754
 C        -6.6178783968        5.8119521567       -6.1409177545
 C       -11.4303172326        8.3445829113       -1.6221629194
 C        -9.1986776346        7.7429990063       -0.6315939984
 C       -13.8460973616        1.5182567901        1.0524445775
 C       -15.7725273909        2.6225193325        1.9880768529
 C       -13.1909150316        2.6595473747        9.3416155030
 C       -11.8673714905        4.1823245165        7.7444656769
 H        -9.9790870985        0.4075383040        8.4540122532
 H       -11.5931010194       -0.3709025599        8.4446581607
 H       -11.0267295273        0.7769864764        9.6736062109
 H       -12.4735908573        3.5198646205        5.2455273942
 H       -13.7140809781        4.5623168232        5.9917069332
 H       -15.1419904888        3.6620200828        4.2243694288
 H       -14.5498165685        2.0048785808        4.6807607498
 H       -12.2733946992        3.5018965086        0.0387234387
 H       -11.9823518332        4.3414560032        1.4729586003
 H       -12.4004553519        6.5987205881        0.2855333489
 H       -12.9679365874        5.6988713053       -1.1197212235
 H        -9.8417127958        8.9542679296       -3.8463119922
 H       -11.0270346289        7.8378332755       -4.5445964379
 H        -8.0637168774        7.8504846222       -4.9838497705
 H        -9.4120963375        8.2223439373       -6.2234956308
 H       -10.0254209955        3.3254329238       -6.1667591267
 H       -10.0563687440        3.4483483644       -4.3624242762
 H        -8.3044854884        1.3490490505       -5.5755083611
 H        -9.9324443523        0.9798100652       -5.2577428497
 H        -6.5080790988       -0.8530940959       -0.5166566502
 H        -7.6589544772        0.4445782512       -0.2914385844
 H        -4.7963712347        1.3439119334       -1.0817721157
 H        -5.0587410596        0.5411416060        0.4057421446
 H        -4.9846737638        6.9806706841        0.2480549434
 H        -3.4467745140        6.0454421291        0.4869078624
 H        -4.7123093611        6.0617619270        1.6760728050
 H        -4.4334590673        4.2353389438        2.7530825684
 H        -4.8574786159        2.5118102807        2.6664788867
 H        -6.0356194584        3.8467623372        2.6518995472
 H        -2.8233045432        3.8901612326        0.8623632377
 H        -3.4682624184        3.4758732493       -0.8130279449
 H        -3.1892833931        2.2948635377        0.3647059867
 H       -10.1153592392       -1.2104437449       -2.6567864355
 H        -9.9274491925        0.1472690970       -1.6136277929
 H        -8.9540218224       -1.2244197061       -1.3265420169
 H        -7.5162373829       -1.8873676459       -3.8256581384
 H        -7.2819782267       -0.5668435475       -4.8593992546
 H        -8.9793282798       -1.1077341237       -4.6614347697
 H        -9.1632465005        4.2356055417       -7.7997414043
 H        -7.4286417536        3.8002443071       -7.7692604652
 H        -8.0895655244        5.4025986642       -8.4179034963
 H        -6.4192486545        6.5034542018       -5.3599491279
 H        -6.4045096160        6.3668861316       -7.0420172990
 H        -5.7853322663        5.0305837399       -6.0190770441
 H       -11.1042185585        9.2883570102       -2.1774201914
 H       -11.7319348746        8.6095935427       -0.5810963304
 H       -12.2344429600        7.8886841822       -2.1437171883
 H        -8.8532626136        8.7521793105       -0.8883059401
 H        -8.4272430560        7.0446978537       -0.6050573219
 H        -9.6766954652        7.7289247897        0.3366804738
 H       -12.8414939379        1.6755785241        0.7345951711
 H       -14.3679865531        1.2745224000        0.0568669871
 H       -13.8871722697        0.6182871674        1.6889832799
 H       -16.2130038162        2.2129655936        1.0099834330
 H       -16.2576607651        3.6053883829        2.1672570583
 H       -16.0521697984        2.0016114604        2.8387818529
 H       -14.0964750861        3.1891729683        9.3158143076
 H       -12.6020984501        3.0536009544       10.1797993020
 H       -13.3400761078        1.5983629880        9.5161486717
 H       -11.1146622009        4.2824782591        8.5283812347
 H       -12.5921335055        4.9910060320        7.7910873003
 H       -11.3437980310        4.1650028787        6.8122905350
 Na       -8.1903836823        4.0455614960       -1.7767437388
