117

 C       -11.0104462740        0.6101365253        8.5099109662
 C       -11.3313784312        1.8648721002        7.6987967884
 O       -10.7301890382        2.0362638103        6.6316336822
 C       -12.3458311783        2.9845376653        8.0292925566
 C       -13.4688669941        2.8167764917        6.9111770306
 O       -14.4233099899        2.0838179621        7.1010444835
 C       -13.3121973479        3.6238179634        5.5667406511
 C       -14.2513760925        3.1194995332        4.3877455106
 C       -13.5730179495        3.0765116756        3.1315705197
 O       -12.3364293293        3.0354813719        3.0603749067
 C       -14.3711844302        2.9655150698        1.7297044949
 C       -14.0062320005        4.2561144627        0.8182481684
 O       -14.8361803383        5.0497604139        0.4601494569
 C       -12.5071494976        4.4258929344        0.3246685578
 C       -12.2215380571        5.8031428300       -0.1648761899
 C       -10.8915131769        5.8384879457       -0.8442457318
 O       -10.1140626815        4.9410213102       -0.7819353249
 C       -10.5130134590        7.1572709803       -1.7393270636
 C        -9.9783063595        6.7597830763       -3.0657455874
 O        -9.4035756171        5.6794886651       -3.1925349936
 C       -10.0120837775        7.7422471113       -4.2325998824
 C        -8.7707267473        7.5164585121       -5.1060677578
 C        -9.0815133307        6.1588190793       -5.9542175079
 O       -10.1942644029        5.9428797802       -6.3464063789
 C        -7.8223370013        5.1921714692       -6.1153202271
 C        -8.0085052228        4.0211493498       -4.9134015838
 O        -7.2545562656        3.9534636237       -4.0048810119
 C        -9.1667904921        3.1412202160       -5.0490473002
 C        -8.7803883423        1.6909369824       -4.6379588872
 C        -8.8427635662        1.2903357509       -3.1707632388
 O        -9.2317007095        2.0045476251       -2.3082929741
 C        -8.3907855058       -0.2168747320       -2.8478116700
 C        -6.9668994485        0.0386121442       -2.1823336605
 O        -6.0054718401        0.1865430898       -2.8546980732
 C        -6.9334637587        0.1380925712       -0.5954898577
 C        -5.8201590002        0.9759655279        0.0344923623
 C        -6.1245416262        2.4708347888       -0.0498267556
 O        -7.2752529067        2.7659431862       -0.4402357703
 C        -5.1470864217        3.4996375213        0.4931595569
 C        -5.4588797246        4.9779641379       -0.0459236532
 O        -6.1430136964        5.2376471898       -1.0081514187
 C        -4.6642122641        6.1219641306        0.6863840890
 C        -5.1674426074        3.3865083908        2.0056549716
 C        -3.7620520780        3.2373775305       -0.0434651245
 C        -9.5598165978       -0.8220394200       -1.9495646351
 C        -8.2838800208       -1.0705023431       -4.1189153811
 C        -7.9289491331        4.4507326823       -7.4796200769
 C        -6.5472339833        5.9580865351       -6.0320882556
 C       -11.7518158785        8.1351463284       -1.8087007116
 C        -9.3876580684        7.8942784405       -0.8737089962
 C       -13.6973551325        1.7424878702        1.0794296226
 C       -15.9175982503        2.8728944056        1.7714097251
 C       -13.0254313522        2.7654906856        9.4581743891
 C       -11.5414738139        4.2924282291        7.8936780594
 H       -10.7602563196       -0.1032425303        7.7561484433
 H       -11.7490441370        0.1455072809        9.2454119598
 H       -10.1740905773        0.7615976618        9.1525626009
 H       -12.3528206533        3.3470236939        5.2560169879
 H       -13.3440315978        4.6724285502        5.7989289190
 H       -15.1598869477        3.7721132117        4.4566044898
 H       -14.6000260649        2.0825686272        4.5531146896
 H       -12.2655410549        3.6076372903       -0.3295202696
 H       -11.8435790826        4.2397232878        1.1610275226
 H       -12.3375689644        6.5568574633        0.6335764432
 H       -13.0081864814        6.0952813093       -0.9333595928
 H       -10.0319090393        8.7864263975       -3.7756529904
 H       -10.9214009704        7.7042295873       -4.7712078230
 H        -7.8817037514        7.4340239963       -4.5040616831
 H        -8.7383983998        8.4205711728       -5.7308949810
 H        -9.6869950916        3.1351068581       -6.0161847374
 H        -9.8766638284        3.5973457059       -4.3629591082
 H        -7.7301215800        1.5430472886       -4.8469596770
 H        -9.3001351821        0.9383169065       -5.2480703594
 H        -6.8517803156       -0.9616605245       -0.2562750278
 H        -7.9399969847        0.4222384760       -0.3446128333
 H        -4.9252150992        0.7424382018       -0.5890819774
 H        -5.5933888160        0.7070882481        1.0674430343
 H        -5.0450582180        7.0508864801        0.2663312096
 H        -3.5670147083        5.9609894000        0.4533685861
 H        -4.8082794561        5.9689849798        1.7571432807
 H        -4.2889598980        3.8621352572        2.4327495875
 H        -5.0872479081        2.4065787773        2.4383436139
 H        -5.9548349150        3.9127925927        2.5207318814
 H        -3.2243713936        4.2098485032       -0.1549840136
 H        -3.6869676134        2.7546678805       -1.0280940907
 H        -3.2460336761        2.6295133741        0.7433735781
 H       -10.4678485733       -1.1628096188       -2.4453528579
 H        -9.9738850057       -0.1316750628       -1.2418699085
 H        -9.1284366766       -1.5925648081       -1.3610428779
 H        -7.9761731707       -2.0642083745       -3.8521044273
 H        -7.5422665618       -0.5359214075       -4.7318698479
 H        -9.3185602534       -1.1060359692       -4.6137535106
 H        -8.9852542453        4.1791901013       -7.6769222021
 H        -7.2609789477        3.5603082240       -7.4697416794
 H        -7.5402556753        5.0889489851       -8.3269954072
 H        -6.1964157538        5.9903996006       -5.0091476962
 H        -6.5390065902        6.9868279414       -6.4170244661
 H        -5.7229501870        5.4816451497       -6.6348095917
 H       -11.3786226272        9.0553474853       -2.2884035938
 H       -12.0165787119        8.3456176619       -0.7759936848
 H       -12.5318352967        7.6942942924       -2.3067564958
 H        -8.9879278458        8.7831616290       -1.3983285487
 H        -8.5338505547        7.2667943988       -0.6890280437
 H        -9.9288814592        8.0688989869        0.0622576359
 H       -12.6330241544        1.8281430029        1.2445194656
 H       -13.7767414291        1.6304750706       -0.0134568437
 H       -14.0732619391        0.8587019157        1.6041202869
 H       -16.3726509027        2.9647626129        0.7560793141
 H       -16.3505354552        3.5658915428        2.4929924092
 H       -16.1035404935        1.8683437127        2.1187550060
 H       -13.5587139690        3.6789063670        9.6871232607
 H       -12.2669003946        2.5070399946       10.2364750344
 H       -13.6817270489        1.8836970881        9.3297884900
 H       -10.7385755664        4.2488284474        8.5868980678
 H       -12.0672682758        5.1988715455        8.1269236815
 H       -11.2204146375        4.2726837276        6.8648655617
 Na       -8.1711836315        4.2580760406       -1.8767212654
