117

 C       -11.2358798853        0.6072077711        8.1458467660
 C       -11.2202184703        2.0116516088        7.6756648128
 O       -10.4824952013        2.3437678961        6.7953096888
 C       -12.3335528104        3.0714438321        8.1504149334
 C       -13.3685854524        3.0283831024        6.9247322988
 O       -14.5574005811        2.9784537840        7.0686293288
 C       -12.8310166977        3.3719729070        5.5006913726
 C       -13.9603917005        3.2384528880        4.4605416831
 C       -13.3784069550        3.1981200278        3.0284733779
 O       -12.1713577105        3.1886819066        2.8395584914
 C       -14.3640346685        3.0029227048        1.8764186788
 C       -14.0200083095        4.1828767503        0.8807468371
 O       -14.7741650076        5.1395213436        0.7714513843
 C       -12.6791827401        4.2834343521        0.0424508952
 C       -12.4410461554        5.7529061493       -0.3919243890
 C       -10.9882516851        5.9821932022       -0.9696593956
 O       -10.0863570447        5.1841545911       -0.6587066795
 C       -10.6485593229        7.2359788157       -1.8088676741
 C       -10.2699700765        6.7000326445       -3.2558426401
 O        -9.9934182585        5.5378193890       -3.4609590184
 C        -9.9009238635        7.8361932460       -4.3365850455
 C        -8.7026256949        7.4347439217       -5.1846132212
 C        -8.8058564960        6.1197725692       -6.0054024263
 O        -9.8976771204        5.7884457954       -6.4099696976
 C        -7.5554808691        5.1533150660       -6.1644092109
 C        -7.6641331968        4.1487378098       -4.8942159877
 O        -7.0483247362        4.3265395193       -3.8090425063
 C        -8.6823011329        3.0535453850       -4.9614405170
 C        -8.0645482173        1.7259617630       -4.3670433009
 C        -8.7093488468        1.2352810660       -3.0392867761
 O        -9.4004490985        1.9317974127       -2.3035288418
 C        -8.5883515485       -0.2678862963       -2.6465754586
 C        -7.2062022761       -0.3268351044       -1.8498886390
 O        -6.1333426069       -0.3923341167       -2.4509602593
 C        -7.1802726289       -0.0756022748       -0.3260674580
 C        -6.0047557071        0.8324947982        0.0219756842
 C        -6.2868942130        2.3464864106       -0.1966668578
 O        -7.3765465865        2.6729570836       -0.5602322501
 C        -5.2436761302        3.3709308416        0.2585422393
 C        -5.5116784631        4.8178162471       -0.1768316039
 O        -6.3883924516        5.0424240689       -1.0086861369
 C        -4.7380167654        5.9919174523        0.4313139788
 C        -5.0746631420        3.1852790454        1.8522139360
 C        -3.8362537765        3.1990898614       -0.4925311622
 C        -9.6787268796       -0.7505377638       -1.7781757956
 C        -8.3930480074       -1.2883447033       -3.7964522139
 C        -7.6239353765        4.3299198337       -7.4377751071
 C        -6.2126427937        5.9667026820       -6.0231855385
 C       -11.8801891711        8.2132606464       -1.9641410426
 C        -9.4975736069        8.0281883558       -1.1595464130
 C       -14.0146150538        1.6250946113        1.2597390750
 C       -15.9428470983        3.0242807180        2.2325782800
 C       -12.9418236020        2.9202153656        9.5092608065
 C       -11.6282486062        4.4641412227        8.0868834833
 H       -12.1487591958        0.1550329784        7.6944344566
 H       -11.4283693655        0.5050417733        9.1475241594
 H       -10.3094136256        0.0358248295        7.9831054431
 H       -12.0400447889        2.7049023528        5.3382610809
 H       -12.4561897088        4.3849153938        5.5375248755
 H       -14.7681385307        3.9400353583        4.6810382396
 H       -14.5188229887        2.2838301268        4.5793026335
 H       -12.7529750579        3.6682571126       -0.8481452102
 H       -11.7924142279        3.9495016417        0.5914267160
 H       -12.5077720089        6.4387121277        0.4818374630
 H       -13.2348524781        6.1501647763       -1.0915249998
 H        -9.8107809328        8.7887224857       -3.8156831046
 H       -10.8022571831        7.9651494334       -4.9611038146
 H        -7.7755479851        7.3984619160       -4.6067296091
 H        -8.3652135522        8.1749545671       -5.8257631846
 H        -9.0430288837        2.8926394251       -5.9321792670
 H        -9.6442543700        3.3009031355       -4.4464158981
 H        -6.9819967724        1.7065577868       -4.2685273379
 H        -8.3691911802        0.9235844036       -5.0407620051
 H        -7.1509960087       -0.9740898217        0.3202537940
 H        -8.1308240825        0.5463323374       -0.1164475401
 H        -5.1257475851        0.6089745122       -0.5237265370
 H        -5.9487254573        0.6304173179        1.1238868653
 H        -4.4810961611        6.6879139944       -0.3571274517
 H        -3.8280451177        5.5960755966        0.8401218428
 H        -5.4737242546        6.4765606004        1.1029147427
 H        -4.4490739952        3.9524133988        2.2736938734
 H        -4.6530518977        2.2508955328        2.1798598314
 H        -5.9860437933        3.1841523287        2.3946291343
 H        -2.9929053221        3.7189814287        0.0406673187
 H        -3.9412055539        3.7483582401       -1.4355999621
 H        -3.6568650801        2.1309912347       -0.6195671613
 H       -10.6710748719       -0.7464880549       -2.2002855106
 H        -9.6884555237       -0.1922688181       -0.8249504143
 H        -9.4639226335       -1.7824791181       -1.4996534679
 H        -8.3635895778       -2.2941534525       -3.3154283455
 H        -7.4506855405       -1.0040143228       -4.2880294432
 H        -9.2783600147       -1.3813284179       -4.4169119622
 H        -8.6737876886        4.0225074377       -7.5293921552
 H        -7.0167881796        3.4211535756       -7.5028611328
 H        -7.3241679684        4.9767047364       -8.2602340884
 H        -6.2555613067        6.6399896245       -5.1208839351
 H        -6.0095913567        6.6297485493       -6.9064035693
 H        -5.3507159907        5.3752973842       -5.9234240522
 H       -11.4631245488        8.9610910086       -2.5379178633
 H       -12.2001496650        8.5796831588       -1.0260990951
 H       -12.6798200348        7.6925234572       -2.5636197323
 H        -8.9215351274        8.7247561690       -1.7677394327
 H        -8.8026992568        7.2841146108       -0.6485083093
 H        -9.9885290798        8.6363638351       -0.3850495371
 H       -12.9347133399        1.3754753340        1.4563358279
 H       -14.3041028123        1.5041949554        0.2505632596
 H       -14.5893638045        0.8743815596        1.7971229103
 H       -16.4109646813        3.2099485046        1.3187721293
 H       -16.1827870928        3.9317075620        2.7573468940
 H       -16.3391549945        2.1304205180        2.7373676875
 H       -13.3958969063        3.9096380757        9.8088093524
 H       -12.1391999849        2.6472832027       10.1742553601
 H       -13.7919575325        2.2452693433        9.3905717875
 H       -11.3139438953        4.7619546116        9.0903331744
 H       -12.2230511242        5.2357010918        7.5894832105
 H       -10.7029796880        4.3361275344        7.4718349299
 Na       -8.4755041643        4.2175464514       -1.9660638043
