117

 C       -11.8168964097        0.8663891411        7.6765728510
 C       -11.1540482659        2.2240639693        7.9164353873
 O        -9.9731783705        2.3492303654        8.0617830553
 C       -12.1033395642        3.5225024889        8.1518190233
 C       -13.0708540712        3.5684598938        6.9744753321
 O       -14.2836089922        3.6716739589        7.0833014523
 C       -12.4989207231        3.3322674620        5.4455422417
 C       -13.6326893571        3.6626985948        4.4919839554
 C       -13.2878154720        3.2870163449        2.9989143443
 O       -12.1341036798        3.1982293162        2.6097912072
 C       -14.4128180835        3.2467106373        1.9500006035
 C       -14.1050763208        4.4812347732        0.9602153556
 O       -14.7594689115        5.4686611057        1.1331078937
 C       -13.0346490163        4.3863096548       -0.0527941663
 C       -12.6723449960        5.7556626417       -0.5336872195
 C       -11.3834798835        5.7989183919       -1.2283924558
 O       -10.5853701801        4.8811981966       -1.0283651617
 C       -10.9162410660        6.9927430941       -2.0980963583
 C       -10.2325970079        6.4299278037       -3.3872735411
 O       -10.0099300210        5.2024749491       -3.5505107900
 C        -9.9459699343        7.3744671606       -4.6173844105
 C        -8.4961398443        7.1207544496       -5.2198033650
 C        -8.6042056311        5.8427119920       -6.0988135921
 O        -9.5916913230        5.6035944161       -6.7656225805
 C        -7.2824779414        4.8769189106       -6.1666470472
 C        -7.2008572099        4.0752869215       -4.8987057761
 O        -7.0916389681        4.6901370152       -3.8603084456
 C        -7.5439816843        2.5771339242       -4.9677306403
 C        -7.2233100230        1.8021172602       -3.6105967569
 C        -8.5217606509        1.3595481266       -2.9304326539
 O        -9.3601200628        2.2588784493       -2.8245411680
 C        -8.7288405059       -0.0823383333       -2.4588840775
 C        -7.3102236944       -0.2464356620       -1.6036004416
 O        -6.3039822125       -0.6434157481       -2.1948358268
 C        -7.3863194977       -0.2312202822       -0.0815759534
 C        -6.4980025430        0.7124565946        0.6219187079
 C        -6.6108717470        2.1448581024        0.0338280595
 O        -7.6382464819        2.4413433544       -0.5708250282
 C        -5.4376426415        3.1194219168        0.1645829697
 C        -5.8575558933        4.6601037452       -0.1577202402
 O        -6.9929620645        4.9751064786       -0.4238046696
 C        -4.7304890467        5.7599644974       -0.0310428518
 C        -4.7108188360        2.9159861912        1.5159501861
 C        -4.4110907416        2.7847889613       -0.9612770399
 C        -9.9858840418       -0.1720450337       -1.5549289623
 C        -8.7031640190       -1.0687120524       -3.6680383152
 C        -7.4074667991        4.0496636936       -7.3774313100
 C        -5.9496616871        5.6443861707       -6.2555289719
 C       -12.0279566020        8.0330336908       -2.3874513527
 C        -9.6317570567        7.6339267165       -1.4671312291
 C       -14.3534806898        1.9324143599        1.1254546095
 C       -15.8575843181        3.3277061700        2.5484892425
 C       -12.8954999939        3.4442962989        9.5036255714
 C       -11.1844726434        4.7475310422        8.1623351804
 H       -12.0580144632        0.7797266435        6.6469408162
 H       -12.8363551082        0.7861100723        8.1662414211
 H       -11.2118043800       -0.0101203412        7.7509661736
 H       -12.1198085517        2.3062796080        5.3557596573
 H       -11.5854270983        3.8909633431        5.3246320467
 H       -13.8174689177        4.7662122170        4.4839277276
 H       -14.5116403232        3.0843131030        4.8831095598
 H       -13.5892377024        3.9356368902       -0.8795280715
 H       -12.1840547951        3.7983583580        0.2114690584
 H       -12.7125457128        6.4434916232        0.3718293733
 H       -13.3837853031        6.1199645953       -1.2829692955
 H        -9.9727705317        8.3823707499       -4.2548315789
 H       -10.6403124535        7.0705181891       -5.4295455892
 H        -7.7929847057        6.9094566884       -4.4789715568
 H        -8.1948103554        7.9550445719       -5.8599129660
 H        -6.9888897098        2.0438571524       -5.7862047830
 H        -8.5849988949        2.4861058580       -5.1500894981
 H        -6.6572144442        2.4388542887       -2.8642448260
 H        -6.5518751838        0.9680400445       -3.8073257331
 H        -7.1407084595       -1.2518255418        0.3432781356
 H        -8.4013031103       -0.0425971822        0.2215707889
 H        -5.4350514772        0.3865733002        0.5994003344
 H        -6.8555662241        0.6832085934        1.6300417968
 H        -4.9360437485        6.1621594175        1.0544529545
 H        -5.0863222450        6.5213215473       -0.7122750201
 H        -3.6989956281        5.3726563484       -0.2660267154
 H        -4.2366473181        3.8160193645        1.8168544744
 H        -3.9387854420        2.1732699649        1.4714377478
 H        -5.4454439908        2.7515271445        2.3056767991
 H        -3.4836180376        3.2999132915       -0.8223947859
 H        -4.9214541361        3.0122084540       -1.8957550544
 H        -4.2979255756        1.6970876268       -0.9784181185
 H       -10.8862198538        0.0405351832       -2.1619759115
 H        -9.9498291782        0.6713688570       -0.8832956345
 H        -9.9814519516       -1.1048717288       -0.9775756927
 H        -8.7329874589       -2.0500691671       -3.2761403606
 H        -7.8189387230       -0.9836892036       -4.2635023831
 H        -9.5467922239       -0.8054614992       -4.3211829829
 H        -8.3946958593        3.6516394590       -7.3700720363
 H        -6.6795022730        3.2663335779       -7.4550615571
 H        -7.3956842131        4.6582697118       -8.2626761818
 H        -5.5795013624        6.0157546250       -5.3369993532
 H        -5.9815756850        6.3969053459       -6.9994078288
 H        -5.2714911757        4.8423988180       -6.6594157935
 H       -11.5661690072        8.8763915450       -2.9557775231
 H       -12.4556863368        8.4582508874       -1.4642607222
 H       -12.8009410816        7.6170712488       -2.9396333111
 H        -9.1737356900        8.4302126711       -2.1243509460
 H        -8.8032677614        6.9581191877       -1.3588767639
 H        -9.8131301864        8.0015729598       -0.4427840084
 H       -13.5742649461        2.0321757828        0.4357752348
 H       -15.2616360987        1.7305051614        0.4964622339
 H       -14.1282992192        1.1571797158        1.8295900134
 H       -16.5453500038        2.8566920999        1.8219771325
 H       -16.1299190198        4.3531607653        2.7228205047
 H       -16.0016309931        2.8042295934        3.4505957184
 H       -13.5256744982        4.2870584121        9.4443601745
 H       -12.1498716888        3.4638260623       10.3235762843
 H       -13.4693100286        2.5241400506        9.6016774858
 H       -11.4667030035        5.6280994595        7.5564697931
 H       -10.2022202148        4.4821398191        7.7215187025
 H       -11.0352735549        5.1765371221        9.1461592104
 Na       -8.4823403379        4.1848130192       -1.9384107662
