117

 C       -12.0614203746        1.0740840057        8.0125257479
 C       -11.1266057921        2.2871422901        8.0278248800
 O        -9.9549190897        2.2061228506        8.2276390785
 C       -11.9138981249        3.6660727082        8.0133594851
 C       -12.9423162369        3.7280484576        6.9096922401
 O       -14.1530356563        3.6354674879        7.1474616270
 C       -12.5198019659        3.8160997110        5.4581257585
 C       -13.7391091392        3.9162096823        4.5641681765
 C       -13.4734156452        3.2647832988        3.2251304103
 O       -12.3253107448        2.9702793701        2.9823701007
 C       -14.5828777443        3.3235543719        2.0322256217
 C       -14.1368609318        4.5576909695        1.0948073960
 O       -14.7597266136        5.5918809059        1.1730405675
 C       -13.0334266258        4.4401843548        0.0420179002
 C       -12.7627576931        5.7211695108       -0.6905300736
 C       -11.3685733987        5.6635972823       -1.3265390285
 O       -10.5569005064        4.8271912125       -1.0469850672
 C       -10.8714235479        6.8212251472       -2.2484076247
 C       -10.2660331293        6.3185878240       -3.5931043020
 O       -10.0819830493        5.1556686281       -3.9080481082
 C        -9.7474341289        7.4555713000       -4.5701837837
 C        -8.3729235856        7.1238607604       -5.3400921862
 C        -8.4840317056        5.7754720911       -6.2769073041
 O        -9.5258503046        5.4171814992       -6.7909582598
 C        -7.1881503355        4.8502198333       -6.2710930664
 C        -7.1663177530        3.9827615697       -4.9505292384
 O        -6.9021445187        4.5205175084       -3.9090893345
 C        -7.5003691362        2.4986403193       -5.0713787440
 C        -7.2744979600        1.7373127247       -3.7196509726
 C        -8.5262398133        1.3673146756       -2.9263162003
 O        -9.4310949584        2.1609381026       -2.8578418352
 C        -8.6572622753       -0.1102446135       -2.3025196674
 C        -7.5466512394       -0.3051703068       -1.2883682756
 O        -6.4481626964       -0.6505252421       -1.7697150567
 C        -7.7715266138       -0.0953910847        0.2384503011
 C        -6.6316466261        0.7184543681        0.7945597422
 C        -6.6452410548        2.0949185474        0.0181874750
 O        -7.6248376170        2.4107309673       -0.6673213798
 C        -5.4824793163        3.0286778201        0.1410421188
 C        -5.8317857232        4.5817510947        0.0153514495
 O        -6.9350869649        4.9475517377       -0.3476350313
 C        -4.6354900548        5.6465333513        0.1797597967
 C        -4.6661634057        2.8587020116        1.4191796655
 C        -4.4886942520        2.7827234138       -1.0831011069
 C       -10.1303564613       -0.1888985472       -1.7717018030
 C        -8.4866968150       -1.2058076516       -3.3825385568
 C        -7.1368238287        4.0102278811       -7.6805634037
 C        -6.0079359059        5.8572510132       -6.3255607227
 C       -12.0197311825        7.8066458227       -2.6086152929
 C        -9.6838422587        7.4376544998       -1.5556092095
 C       -14.4583078347        2.1056362828        1.1093717079
 C       -15.9814160108        3.5646461807        2.5882599169
 C       -12.6650539976        3.7131259178        9.3867643644
 C       -10.8257805473        4.8291054477        7.8976052593
 H       -11.7191325723        0.5673933108        7.0884662436
 H       -13.1299701736        1.2018573138        7.8924819157
 H       -11.9376014783        0.2572602135        8.7563920043
 H       -11.8720658681        2.9243136802        5.3016125798
 H       -11.8949569211        4.7079635171        5.3919171219
 H       -13.8175356253        5.0591612327        4.4256062768
 H       -14.6964588923        3.4774870386        4.9835784008
 H       -13.1868227838        3.6191662268       -0.6721268482
 H       -12.1494032169        4.1914040803        0.6100875887
 H       -12.5432013478        6.5265844359        0.0480028923
 H       -13.5593198066        6.0550118137       -1.3293876336
 H        -9.5326542181        8.3811983964       -4.0235435862
 H       -10.5463839302        7.5539046181       -5.2910632177
 H        -7.6747342541        7.0236952051       -4.5629521217
 H        -8.1982106266        7.9606800604       -6.0257311828
 H        -6.8361173730        1.9861827910       -5.8113064229
 H        -8.5346151562        2.4621796033       -5.3294092780
 H        -6.5011074767        2.3093951064       -3.1327593555
 H        -6.7651710992        0.7857788402       -3.8929783441
 H        -7.8608176856       -1.0848276663        0.7054535843
 H        -8.6859678293        0.3503397356        0.4359763892
 H        -5.6306031276        0.2214187773        0.7346801594
 H        -6.7214368859        0.9576375074        1.8280766154
 H        -3.9456354704        5.2276325095        0.9442760501
 H        -5.0944927795        6.5822467126        0.4833074862
 H        -4.2571234500        5.8731987872       -0.8587650215
 H        -3.6017393183        2.9272919793        1.1221671467
 H        -4.8677609357        1.9404435213        2.0112239054
 H        -4.8779017868        3.7863883104        1.9908300009
 H        -3.6167773666        3.3701955445       -0.8625875877
 H        -4.8368396438        3.0801784677       -2.0333530477
 H        -4.2260470432        1.7335734134       -0.9817119652
 H       -10.8211992325        0.1174707445       -2.5807096063
 H       -10.3012471860        0.5043987713       -0.9645614674
 H       -10.3115147169       -1.2085110698       -1.4728434242
 H        -8.9555698470       -2.0896957229       -3.0422406178
 H        -7.4334674193       -1.3815554360       -3.5885359210
 H        -9.0325181471       -0.9556390856       -4.3539650243
 H        -8.0547783074        3.4286403362       -7.8212259231
 H        -6.2798896660        3.3276204688       -7.8148895053
 H        -6.9814259703        4.7295480681       -8.5171628686
 H        -5.9635770411        6.4319366831       -5.4191717415
 H        -6.0948050410        6.4443134694       -7.2332102807
 H        -5.0641266362        5.3140003559       -6.4597755397
 H       -11.6551064845        8.7290294587       -3.1379195627
 H       -12.6097546914        8.1607039463       -1.7457510573
 H       -12.7845371650        7.3235442150       -3.1912489603
 H        -9.0308962988        8.0963987888       -2.1263502549
 H        -8.9570491976        6.7683775292       -1.2012597926
 H       -10.0571800128        7.9948694010       -0.7347473392
 H       -13.3994862979        1.8306728982        1.0784429431
 H       -14.7357897967        2.3984321908        0.0773100991
 H       -15.0534010068        1.2651531388        1.4982277024
 H       -16.7152773519        3.6516539720        1.7394902164
 H       -16.0863329349        4.4710226695        3.2259504269
 H       -16.2693446114        2.7294787531        3.2728374888
 H       -13.2181870861        4.6061143919        9.4002831284
 H       -11.9151331175        3.5934665324       10.1608602431
 H       -13.3600367529        2.8970086269        9.4548446838
 H       -10.6191691721        5.4079221514        8.7677618626
 H       -11.0492963969        5.6112915652        7.2154721885
 H        -9.8916723437        4.4028163157        7.5736932005
 Na       -8.5730218119        4.1878200851       -2.1404791048
