117

 C       -11.4941072964        0.5827826837        8.0071353870
 C       -11.2111950010        2.1010480514        7.9249509382
 O       -10.0480076525        2.4077633888        7.6405281575
 C       -12.2388484231        3.3207770336        8.1557128178
 C       -13.2026887496        3.4681305337        6.9037983284
 O       -14.3854669129        3.5702112569        6.9970149626
 C       -12.4988444851        3.5552633796        5.4829284954
 C       -13.6287475062        3.3287580503        4.4226134472
 C       -13.2670829078        3.2837641602        2.9336111425
 O       -12.1051617046        3.1721649530        2.6424878451
 C       -14.5047740417        3.1544344982        1.7863992825
 C       -14.2623459983        4.4641424038        0.9647700435
 O       -14.9236043713        5.4531844425        1.0793416728
 C       -12.9864473454        4.3757956458        0.0727938204
 C       -12.7026819406        5.6138772947       -0.8315816124
 C       -11.1901846460        5.9217161009       -1.0463592868
 O       -10.3998375573        5.1038312699       -0.6253447266
 C       -10.6824046146        7.1350275177       -1.9639947118
 C       -10.1008341273        6.5583662102       -3.3513262705
 O        -9.8676353707        5.3645248039       -3.3991587561
 C        -9.9503049831        7.5297277932       -4.5819305978
 C        -8.6437123867        7.2991443898       -5.2960136140
 C        -8.6790210778        6.0020065459       -6.1145829724
 O        -9.6760258704        5.7364969709       -6.7186861570
 C        -7.3354489915        4.9881160501       -6.2218109096
 C        -7.4474391581        4.1131431599       -4.9193766682
 O        -7.2410516212        4.5704523487       -3.8209718048
 C        -7.8720452479        2.6555626369       -5.0744647708
 C        -7.4428692701        1.7592225623       -3.8770314095
 C        -8.6598270223        1.3129667904       -3.0021151925
 O        -9.5300259623        2.0877403161       -2.6934089445
 C        -8.6217409044       -0.2479920108       -2.5378192130
 C        -7.3962617694       -0.2945998395       -1.7237685897
 O        -6.3744273040       -0.5128518593       -2.2942025941
 C        -7.2654082655       -0.1144462225       -0.1378173942
 C        -6.0662793536        0.6956864360        0.1613245395
 C        -6.4642187314        2.2072608425       -0.0934459206
 O        -7.6131571365        2.4314677120       -0.3903098671
 C        -5.2365550100        3.2716998937        0.1960517183
 C        -5.7918940983        4.7620778526       -0.1837859851
 O        -6.8681408365        5.1201671174       -0.5336873002
 C        -4.6964913630        5.8082801797        0.1563011710
 C        -4.8531667702        3.1370496386        1.7356598518
 C        -4.1302883982        2.9126886798       -0.8154007562
 C        -9.8362385571       -0.5404388402       -1.5375305926
 C        -8.6270256342       -1.2614345433       -3.7602821920
 C        -7.4371084884        4.2052607964       -7.6448847804
 C        -6.1141323396        5.9034009507       -6.1869775291
 C       -11.8647635263        8.0831208901       -2.3155595837
 C        -9.5384511923        7.8167004998       -1.1824419410
 C       -14.1226994351        1.8614229891        1.0074867637
 C       -15.8985554436        3.0587474322        2.4584343334
 C       -13.0173083389        3.0007073095        9.4665449886
 C       -11.3830646772        4.6056426444        8.2856038505
 H       -12.3108567575        0.2812690027        7.4248216343
 H       -11.8580003277        0.2389882181        9.0415854133
 H       -10.6585532379        0.0156101654        7.6581940218
 H       -11.6731933262        2.8670451035        5.2608309392
 H       -12.0709168572        4.5208020530        5.3252376289
 H       -14.4920418834        3.9407619830        4.3754426688
 H       -14.0465965650        2.3122493574        4.5376889193
 H       -12.9542884695        3.5369111233       -0.6254301146
 H       -12.1901681098        4.2906000512        0.8043601621
 H       -13.1573313163        6.5114322313       -0.3003644583
 H       -13.2248697375        5.5363793470       -1.7853181089
 H        -9.7357244382        8.4330091500       -4.0575714602
 H       -10.9341062128        7.5143550729       -5.1563033100
 H        -7.8374369032        7.3222668068       -4.6202261351
 H        -8.3735745785        8.1534734169       -5.9404736030
 H        -7.2891587377        2.2720762450       -5.9560876008
 H        -8.8913313333        2.5945599160       -5.3954750415
 H        -6.6431257362        2.2961545068       -3.3403792251
 H        -7.0355785110        0.8637468809       -4.2952081418
 H        -7.1002399669       -1.1976731702        0.1675275819
 H        -8.1349822974        0.3491299134        0.3862153977
 H        -5.3026396308        0.4033455456       -0.5874918729
 H        -5.8204044479        0.5808241164        1.2054242949
 H        -5.1948024685        6.7762487860       -0.0085109080
 H        -3.9236298392        5.7075248776       -0.6059894308
 H        -4.3928189951        5.6680762654        1.1755282659
 H        -3.8291488639        3.3725438103        1.8270065767
 H        -4.9525010190        2.1300026071        2.1030637426
 H        -5.3765250250        3.8246191198        2.4111145222
 H        -3.4387856086        3.7132478159       -0.9472354203
 H        -4.7725845467        2.5569525728       -1.6690661890
 H        -3.5485494710        2.0378693513       -0.4760791383
 H       -10.7615208516       -0.3902707710       -2.1152131823
 H        -9.7693561615        0.1396700426       -0.7115055118
 H        -9.8704579341       -1.5692800188       -1.1235574170
 H        -8.8655087267       -2.2523957386       -3.3371887617
 H        -7.6392146002       -1.3086568794       -4.2428745058
 H        -9.3306011752       -0.8258148809       -4.4436691419
 H        -8.2088517236        3.4670569661       -7.7705748957
 H        -6.4851047602        3.7372721644       -7.8608179785
 H        -7.6914487075        4.9426477904       -8.3758009187
 H        -6.0788228888        6.4221833537       -5.2427482963
 H        -6.1481366556        6.6516032861       -6.9320608055
 H        -5.1792624486        5.2323578247       -6.2165134293
 H       -11.4975926865        8.8990239676       -2.9519140972
 H       -12.2574536864        8.5162283256       -1.3965870895
 H       -12.5449558516        7.5715143029       -2.8892623363
 H        -9.2272100277        8.8194098300       -1.6149894351
 H        -8.7148166795        7.1371819550       -1.0195396056
 H        -9.8295443077        8.1004548687       -0.1353227559
 H       -13.0976182999        1.7466511207        1.0779141478
 H       -14.5004799833        1.8093981689       -0.0630963161
 H       -14.5935095728        1.0556695059        1.5532968024
 H       -16.5865122884        3.2024939390        1.6081999221
 H       -16.1284408212        3.8619619150        3.1066556534
 H       -16.1202241001        2.1184945987        2.8215415521
 H       -13.4126449899        3.9523711613        9.7705952804
 H       -12.3183372239        2.6619731192       10.2808403601
 H       -13.8026926387        2.2859247032        9.1710834765
 H       -10.4046610474        4.5404546355        7.7320381452
 H       -11.2686372658        4.8402868869        9.3768807540
 H       -11.8039392649        5.5030637069        7.8452223385
 Na       -8.6062433258        4.1392889414       -1.7355171144
