117

 C       -12.0885089062        1.6556058897        9.0654563749
 C       -11.2565068805        2.4231391565        8.0413117569
 O       -10.4301227193        1.8607882337        7.3888764774
 C       -11.6046066410        4.0409263316        7.8979755313
 C       -12.8096965256        4.0408821150        6.9330256834
 O       -13.8635234108        3.6216863589        7.3076122883
 C       -12.6432506124        4.3912703529        5.4111758942
 C       -13.9356158751        4.3425423854        4.6847115800
 C       -13.6979305847        3.6374218302        3.2300933746
 O       -12.6432084291        3.0788269894        3.0449982280
 C       -14.7210821744        3.7066280828        2.0739552841
 C       -13.9977192846        4.8199138994        1.0649581471
 O       -14.3922499086        5.9519557847        1.1044222724
 C       -12.8024606562        4.3242310308        0.1985541324
 C       -12.4445092196        5.4003876986       -0.7898726391
 C       -10.9721990803        5.4741514787       -1.3888916157
 O       -10.0798663270        4.7459111583       -0.9319536837
 C       -10.7036274750        6.6555296482       -2.5269733903
 C        -9.9786868689        6.1136231730       -3.7096804964
 O        -9.5840309343        4.9571429657       -3.7631210151
 C        -9.8562309957        7.1293791628       -4.8481718218
 C        -8.5480022895        6.9333074244       -5.7795642482
 C        -8.4801705327        5.4892060675       -6.1818745008
 O        -9.4739945850        4.9722897837       -6.6733167184
 C        -7.1141819556        4.7325975914       -6.1257016708
 C        -7.3154771931        3.6243320998       -5.0637938022
 O        -6.6154443781        3.8088468096       -4.0427391465
 C        -8.2990547997        2.5041057680       -5.1681882194
 C        -7.8777276257        1.2626017077       -4.4338065580
 C        -8.8938917512        0.9044959885       -3.2961660648
 O        -9.7261992324        1.7164664952       -2.9424798006
 C        -8.8134332191       -0.3987569932       -2.4127033259
 C        -7.6612416714       -0.1128792110       -1.3393348940
 O        -6.5465877854       -0.1069973470       -1.7112367632
 C        -8.0523702784        0.0809124213        0.1478601480
 C        -7.0301820300        0.9212192991        0.9244509146
 C        -6.8003365701        2.2513506400        0.2369982650
 O        -7.5206048000        2.5828519138       -0.6884365288
 C        -5.5013589312        3.1624411114        0.4145778103
 C        -5.7232327372        4.6034967855        0.1265359256
 O        -6.6247896414        5.0519229535       -0.5709981312
 C        -4.9000769653        5.7524733277        0.8467432365
 C        -4.9783546324        2.9311100378        1.8049024922
 C        -4.4871123120        2.4952707399       -0.5671242085
 C       -10.1245602165       -0.8128357390       -1.7368775768
 C        -8.4249028131       -1.5463719436       -3.2866488891
 C        -7.0382161155        4.0237704601       -7.4923924310
 C        -5.7794060653        5.5750618310       -5.9382236642
 C       -11.9744231414        7.2978523618       -3.0456330357
 C        -9.9847852359        7.7367048556       -1.7737559111
 C       -14.9365530016        2.4049189993        1.3399616424
 C       -16.1777598819        4.2188058314        2.4716104560
 C       -12.0310890819        4.5311245356        9.2740897380
 C       -10.3048907451        4.9001379939        7.4988675325
 H       -11.5200295840        1.1055255437        9.7712053419
 H       -12.8052759635        0.8670162202        8.6663677098
 H       -12.7780927807        2.2885999019        9.6040050738
 H       -11.9049488984        3.6603413810        5.0194849568
 H       -12.3135239750        5.4219802024        5.3096019398
 H       -14.3102820464        5.3942987156        4.4932594578
 H       -14.7964248667        3.9154917414        5.2563977114
 H       -13.1291967430        3.3571861942       -0.1941814727
 H       -11.9464017442        4.0637476654        0.8254480128
 H       -12.7374784039        6.3585378055       -0.3663095707
 H       -13.1236039018        5.3154747649       -1.6266068932
 H        -9.8145786953        8.1388497111       -4.3560364481
 H       -10.7290790887        7.2369758039       -5.4369281936
 H        -7.6364407438        7.2938107848       -5.2369577154
 H        -8.4913470836        7.5624092585       -6.6707301975
 H        -8.4372972755        2.2482200737       -6.2285934557
 H        -9.2615503633        2.9026309458       -4.7965916918
 H        -6.8847817130        1.4022956753       -4.0301324514
 H        -7.7743308809        0.4107869595       -5.1441470133
 H        -8.0845556987       -0.8549658817        0.5777567449
 H        -9.0096066118        0.6273587357        0.2516171400
 H        -6.0333332560        0.5319514037        1.0886870267
 H        -7.3515077089        1.1200693898        1.9726318744
 H        -4.2711140561        6.2703991528        0.0575861471
 H        -4.4088339328        5.4016360497        1.7013628318
 H        -5.5883531984        6.4916175043        1.0156279221
 H        -3.9652565795        3.3605424589        1.8065832643
 H        -4.7777380278        1.8599741950        1.9356828543
 H        -5.5250518946        3.4247920974        2.6338464249
 H        -3.4895987306        2.9809072873       -0.5971271741
 H        -4.9744927389        2.2620546320       -1.5532781196
 H        -4.2983462031        1.5209106566       -0.1402455809
 H       -10.7297690309       -1.3004260696       -2.4823526932
 H       -10.6830599819        0.0791199074       -1.4028209947
 H        -9.9725358224       -1.4787037490       -0.8744314636
 H        -8.0090242242       -2.4173762576       -2.6737598148
 H        -7.5630756983       -1.3298263406       -3.9510404126
 H        -9.1991240826       -1.7698081547       -3.9758229577
 H        -7.8499058636        3.3212434539       -7.6778586843
 H        -6.0735956715        3.5324668870       -7.5426717764
 H        -7.1101907975        4.7337142390       -8.3068561804
 H        -5.6453839330        5.8097864148       -4.8668851064
 H        -5.8664583685        6.5627171725       -6.3915401734
 H        -4.9384961689        4.9557161428       -6.2338202260
 H       -11.8051868582        8.0876033157       -3.7594046249
 H       -12.6019909044        7.7470231320       -2.2576803606
 H       -12.6053938157        6.6204696205       -3.6389813695
 H        -9.8704001582        8.7019439771       -2.2045964983
 H        -9.0321473200        7.3908836144       -1.3495810410
 H       -10.4488132327        7.9399594811       -0.7972263078
 H       -14.1170734257        1.6760690135        1.4324851841
 H       -15.1586251077        2.6236187660        0.3047663955
 H       -15.8663368047        1.9563043089        1.6977239246
 H       -16.9576081636        3.8623823344        1.8097587089
 H       -16.1738507158        5.3020068847        2.5038678219
 H       -16.5412196125        3.8138297210        3.3922254544
 H       -12.2656989853        5.6352219105        9.3246843490
 H       -11.1883755686        4.4916596284        9.9489845370
 H       -12.9467169873        4.0150863309        9.6044208259
 H       -10.6129213604        5.6845017712        6.7771821583
 H        -9.3250724815        4.4715256833        7.2492413974
 H        -9.9933375480        5.4449530334        8.4074482719
 Na       -8.0665754575        4.1217051529       -2.2057382947
