117

 C       -12.0446664107        1.0509686334        8.0896005940
 C       -11.2279184922        2.3026034713        8.1557405869
 O       -10.0269802307        2.1607255893        8.0278312846
 C       -11.8512043290        3.7863872514        8.0688429301
 C       -12.9661287897        3.7725165510        6.9817035569
 O       -14.0895258636        3.5125269727        7.2809762215
 C       -12.5307242488        4.0829618490        5.4718849771
 C       -13.7746193215        3.9762615120        4.4736144346
 C       -13.4857283549        3.3000277071        3.1010605766
 O       -12.4684840163        2.6966989066        2.8606038132
 C       -14.6079800423        3.4585932854        1.9939792155
 C       -14.1380404758        4.6952653907        1.1193728895
 O       -14.6793285184        5.7522945187        1.2075700336
 C       -12.9233629032        4.4608894118        0.2223653854
 C       -12.7587728877        5.5725366486       -0.8253355667
 C       -11.3041692178        5.5948504417       -1.4203552392
 O       -10.5001167716        4.6719810276       -1.1103941017
 C       -10.8315111001        6.8228402972       -2.2704780183
 C       -10.2365004872        6.3202984633       -3.6521164979
 O        -9.8505531369        5.1598322613       -3.7504352859
 C        -9.8817345297        7.3227616210       -4.7559003447
 C        -8.4663092867        6.9785951366       -5.4086999318
 C        -8.4829829896        5.6953704346       -6.2925401073
 O        -9.4491289223        5.3396450381       -6.9060430458
 C        -7.0686092601        4.7932912717       -6.3053632023
 C        -7.1873817417        3.9538776015       -4.9891111614
 O        -6.9102494701        4.4844290182       -3.8814795039
 C        -7.6393321662        2.4955393315       -5.1467678847
 C        -7.3092788635        1.5658466407       -3.9129861346
 C        -8.6091407583        1.1584265852       -3.1084059667
 O        -9.3824203173        2.1104022885       -2.8770526464
 C        -8.7786696352       -0.2810546105       -2.4805448568
 C        -7.6354832274       -0.2548861432       -1.2874127108
 O        -6.5246597388       -0.4492580084       -1.5941265455
 C        -7.9341144656        0.0726751725        0.2055167717
 C        -6.8524988016        0.8375666097        0.8305567525
 C        -6.6579340958        2.1798080646        0.1121500949
 O        -7.4978971641        2.5854140035       -0.6544591122
 C        -5.3745026168        3.0651970561        0.2537567862
 C        -5.7913778717        4.6339488580        0.0225100501
 O        -6.8207726845        4.9168804979       -0.5183127834
 C        -4.6974474863        5.7818052607        0.2791706437
 C        -4.5591046789        2.8745283501        1.5128216526
 C        -4.5370148169        2.6922036299       -0.9999434041
 C       -10.1965304565       -0.2876149439       -1.8737370337
 C        -8.5337627592       -1.4447075687       -3.5524338455
 C        -7.1764806881        3.9985598245       -7.5974988032
 C        -5.8311735084        5.6833965448       -6.1870727430
 C       -11.8910142984        7.8390629952       -2.6296255695
 C        -9.8224884257        7.6598029682       -1.3658910164
 C       -14.5506337455        2.0681190372        1.3512533877
 C       -16.0459053913        3.6748380897        2.5329713308
 C       -12.4772500096        4.1022953540        9.4722626284
 C       -10.7174050368        4.8164959843        7.8926533565
 H       -11.6792112875        0.1736885955        7.6419903650
 H       -13.0800689912        1.2154067984        7.6782821234
 H       -12.3124431830        0.7886737138        9.0902219247
 H       -11.7873703130        3.3573297781        5.1812606587
 H       -12.1041207829        5.0881684034        5.5630538191
 H       -14.0937740332        4.9423095639        4.2910587259
 H       -14.6001961252        3.3957274162        4.8438044890
 H       -12.8707610251        3.4137314119       -0.0643299221
 H       -12.0303683051        4.5952215560        0.8759503534
 H       -12.9112905708        6.5237453256       -0.2970479399
 H       -13.4642154865        5.5544964495       -1.7026414412
 H        -9.8226730782        8.3463531043       -4.3395219151
 H       -10.6326402048        7.2018471052       -5.5898429066
 H        -7.8155293030        6.8230007667       -4.5258853072
 H        -8.2323097376        7.8148851541       -6.0263385197
 H        -7.0409259152        2.1225509490       -5.9308703427
 H        -8.7372442845        2.5297456423       -5.3736171162
 H        -6.7637644677        2.2228779906       -3.2501982638
 H        -6.5541178574        0.7908326911       -4.1131469102
 H        -8.2377717754       -0.7976967107        0.8091192721
 H        -8.8815330300        0.7416075842        0.2836305827
 H        -5.8902046450        0.3828408955        0.8977966364
 H        -7.0316932410        1.0704859766        1.9136649768
 H        -3.8076122477        5.3560118117        0.7590882419
 H        -5.1213168371        6.6228012772        0.8187371455
 H        -4.6219918087        6.1565565171       -0.6965690543
 H        -3.6229800936        3.3167046011        1.3424631385
 H        -4.4159951837        1.8335042594        1.6231246668
 H        -5.0774391808        3.2407463819        2.3702722503
 H        -3.7336646627        3.4150640548       -1.0563765079
 H        -5.1388549918        3.0075925110       -1.8908482892
 H        -4.1817973625        1.6828637218       -0.9757778045
 H       -11.0039323366       -0.3939939625       -2.6029196544
 H       -10.2349206777        0.7111673123       -1.4086536893
 H       -10.3248204541       -1.0687464849       -1.0874026885
 H        -8.3956313099       -2.4607757047       -3.1098440468
 H        -7.6452398045       -1.1202697584       -4.0677283844
 H        -9.3172406204       -1.6231447535       -4.1982561085
 H        -8.1094806028        3.4787564302       -7.6494870538
 H        -6.3961621251        3.2774686377       -7.7166268402
 H        -7.0537427936        4.6871794585       -8.3805613831
 H        -5.9010363327        6.1378895287       -5.2097123239
 H        -5.7643393141        6.3937642355       -6.9871879655
 H        -4.9014837647        5.0974365846       -6.2097699557
 H       -11.4561304935        8.6190008485       -3.2021304304
 H       -12.3647329950        8.3051105547       -1.7867652520
 H       -12.7383950635        7.4608529989       -3.1975572230
 H        -9.3627866943        8.5064966620       -1.8814363050
 H        -8.8826482673        7.1185318494       -1.1433011465
 H       -10.2235383343        8.1273969595       -0.4322454840
 H       -13.5732584783        1.6797354126        1.1272304120
 H       -15.2434073596        2.0089299523        0.5059427020
 H       -14.9935948848        1.4640666487        2.1310754430
 H       -16.6920194528        3.4108410751        1.7257003689
 H       -16.3072331618        4.6774295152        2.7801060876
 H       -16.2613481295        3.0939309360        3.3872923457
 H       -12.8608823699        5.1389179449        9.4601961560
 H       -11.7762202626        3.9280306364       10.2888673147
 H       -13.3371547156        3.4341275355        9.5163295181
 H        -9.8855445569        4.6094831121        8.5901453610
 H       -10.9968295557        5.8368302886        8.2434207164
 H       -10.2756081214        4.9475244685        6.8989326953
 Na       -8.5078056492        4.0999317206       -2.0940073480
