117

 C       -11.6996395627        2.0735878071        9.3965720666
 C       -11.3265774520        2.6609011653        8.0763055491
 O       -10.7130185445        1.9723242225        7.2880325151
 C       -11.4805044948        4.2317017827        7.7774628984
 C       -12.4946827937        4.6444741116        6.7266564400
 O       -13.3840847811        5.4770689061        6.8673172329
 C       -12.2074309302        4.0774069694        5.2647929722
 C       -13.4756050189        4.3128337649        4.3901144006
 C       -13.2116585347        4.1313917423        2.9662400881
 O       -12.0964863212        3.9471751129        2.4825535792
 C       -14.4756095859        4.2009864467        2.0230084076
 C       -14.0173037887        5.1640619482        0.8980927747
 O       -14.5855803519        6.2256018558        0.7924135024
 C       -12.8552417265        4.8269704369       -0.1336462921
 C       -12.5100472880        6.1325987338       -0.9384375872
 C       -11.3638590859        5.8027671296       -1.8817058048
 O       -10.8231054504        4.6641105412       -1.9332368236
 C       -10.8546467491        7.0612446523       -2.7067704943
 C        -9.8947530544        6.3840747233       -3.7558005810
 O        -8.9173346758        5.7669635010       -3.3386148593
 C        -9.9317757805        6.6328984286       -5.2945260745
 C        -8.5642563204        6.3772831171       -5.8463863807
 C        -8.4363309803        4.9117978597       -6.4091446425
 O        -9.2949835614        4.3070969952       -6.9949211865
 C        -7.0925843931        4.0511883310       -6.1406957516
 C        -7.5105509376        3.1188692095       -4.9041179174
 O        -7.0266249400        3.3144455456       -3.7770960609
 C        -8.6455245493        2.1492080773       -5.0933131996
 C        -8.4070549097        0.8255537978       -4.4854318172
 C        -9.0055216381        0.7336944624       -3.0400916571
 O        -9.5007911533        1.6975464751       -2.4873707315
 C        -8.7180234943       -0.6396602105       -2.2695122195
 C        -7.5422207872       -0.4783208291       -1.1631756026
 O        -6.4280831823       -0.4412167274       -1.6252594902
 C        -7.8621102534       -0.3599951831        0.3117339957
 C        -6.7915701607        0.5248990230        1.0014280676
 C        -6.8404626362        1.9717356225        0.4840649790
 O        -7.8414986031        2.2088777240       -0.1519750395
 C        -5.6478290327        2.9381867633        0.5966004970
 C        -6.2591702918        4.4726067676        0.4804026885
 O        -7.0709938002        4.7214247000       -0.3805215657
 C        -5.7307633762        5.5205303729        1.4756868177
 C        -4.9752007901        2.7938151534        1.9551629184
 C        -4.5982892194        2.6729095987       -0.5160418656
 C       -10.1219600975       -1.0940674750       -1.7095644320
 C        -8.1749573974       -1.7570082583       -3.1626607737
 C        -6.8220305891        3.2766396109       -7.4637635345
 C        -5.9149775755        4.9620470154       -5.7010861828
 C       -12.0123218356        7.8143165619       -3.3686459985
 C       -10.0748840464        8.0908751668       -1.8444431565
 C       -14.6758400365        2.7634002844        1.4715128052
 C       -15.7752261675        4.6885786696        2.6705141650
 C       -11.8892965615        5.0147502015        9.1547319788
 C       -10.0229116313        4.7076879030        7.4671566948
 H       -10.9172166133        2.3628467260       10.1241873572
 H       -11.8680766158        1.0304763497        9.3485560028
 H       -12.5834074878        2.5750588634        9.8329196315
 H       -11.9747948701        2.9975675731        5.3869377526
 H       -11.2825683947        4.4536401833        4.8325961547
 H       -13.8137191675        5.2871868968        4.5791078810
 H       -14.2051758316        3.5260344600        4.6349837633
 H       -13.1241964780        4.0045008784       -0.8270639513
 H       -11.9513053728        4.4769904292        0.3895327462
 H       -12.1684093670        6.8445786478       -0.1698405407
 H       -13.3690223399        6.5649567976       -1.4684668348
 H       -10.2453159719        7.6522498735       -5.5721125055
 H       -10.6866161703        5.9433199322       -5.7360583002
 H        -7.8685291347        6.5163507378       -5.0084415920
 H        -8.2959008538        6.9937124871       -6.6895014556
 H        -8.9979751842        2.0329787315       -6.0861987518
 H        -9.5262002277        2.6690323362       -4.5959140091
 H        -7.3381612169        0.6749141049       -4.3455155307
 H        -8.8410798988        0.0533983401       -5.1744803584
 H        -7.9445908425       -1.3437905846        0.8497799675
 H        -8.8932289140        0.0798953011        0.3713385839
 H        -5.8546563669        0.0432610452        0.7913169635
 H        -6.9916184887        0.4988224055        2.0936997094
 H        -4.8168570506        5.2100745330        1.8760398916
 H        -6.4348409264        5.6529762604        2.3883977491
 H        -5.7266310099        6.5330078411        0.9895326986
 H        -4.1618043348        3.4995020837        2.2129006518
 H        -4.4433600273        1.8141005944        2.0212437046
 H        -5.6030058464        2.7049300709        2.8773438951
 H        -3.5940895434        2.9265076961       -0.2132529408
 H        -4.7382943069        3.3632703973       -1.3453459005
 H        -4.4747444249        1.6155005068       -0.8014397641
 H       -10.8185659023       -1.3559299263       -2.5036033224
 H       -10.5017141383       -0.2868322509       -1.1129060227
 H       -10.0642344325       -1.9749751279       -1.0507160938
 H        -8.1807268718       -2.7424845991       -2.6871202536
 H        -7.1134738620       -1.5231451922       -3.3028470152
 H        -8.6923372084       -1.8729140510       -4.1386595081
 H        -7.7422048937        2.8982007184       -7.9293652514
 H        -6.1940261304        2.3984973926       -7.2033390054
 H        -6.4061098801        3.8876159921       -8.2599524345
 H        -6.0329699856        5.5473686291       -4.8159609685
 H        -5.6561474528        5.5562038612       -6.5362214509
 H        -4.9666122717        4.3794767723       -5.4596250481
 H       -11.5802868036        8.7967916499       -3.7302456431
 H       -12.8339281169        8.0071761360       -2.6495892706
 H       -12.3086029935        7.2761049171       -4.2487588760
 H        -9.8316757418        8.9909879667       -2.4184635609
 H        -9.1832688030        7.6983365148       -1.4251043367
 H       -10.7197279739        8.4177077460       -1.0203295946
 H       -13.7417168877        2.2771523195        1.3131660849
 H       -15.3594806109        2.7707402054        0.5476244278
 H       -15.2339074328        2.1265037276        2.1861846233
 H       -16.6261667944        4.4701062039        1.9594537875
 H       -15.6808713380        5.7514563325        2.9671718955
 H       -15.8695113782        4.0360521042        3.5523014870
 H       -12.3028332667        5.9927914527        9.0105359512
 H       -11.0027401500        5.1949074394        9.8231974805
 H       -12.5206797960        4.3878817943        9.7854472051
 H        -9.8470418134        5.7260184520        7.8079721330
 H        -9.9231297323        4.6995010466        6.3595099863
 H        -9.3420683887        3.9807034793        7.8667112082
 Na       -8.5751491243        3.8716137873       -1.7632983117
