117

 C       -11.8879024892        1.8245514958        9.1887598719
 C       -11.3660843027        2.5412585502        8.0295768994
 O       -10.5749694901        2.0509136088        7.2571186852
 C       -11.6103891387        4.0910155490        7.8074261759
 C       -12.8928298964        4.2035640380        6.9439765963
 O       -13.9764692124        3.9250891585        7.3558368534
 C       -12.5865359089        4.3882126737        5.4226368519
 C       -13.8638422000        4.3110580930        4.5953980168
 C       -13.5096020684        3.7621200055        3.1693311243
 O       -12.5159008261        3.1241145814        2.9533315640
 C       -14.5692290605        3.9090340770        2.0539283403
 C       -13.8753893828        4.9136774759        1.0564135153
 O       -14.3378009375        6.0191557965        1.0057469450
 C       -12.6791951142        4.4515596277        0.1947213235
 C       -12.4186096425        5.5259512511       -0.8499188879
 C       -11.0550748848        5.4624356308       -1.4586440846
 O       -10.1426113195        4.6841614331       -1.1848996673
 C       -10.8842979152        6.6866675989       -2.5468087496
 C       -10.0722915895        6.2634065900       -3.7681270757
 O        -9.3209488220        5.2740303196       -3.7081256361
 C        -9.9226619322        7.0621907042       -5.0717555545
 C        -8.5840253817        6.7600298326       -5.6482304242
 C        -8.4981789443        5.2610351602       -6.1974277851
 O        -9.5061827332        4.7373594864       -6.6534868379
 C        -7.1096514247        4.5623614734       -6.2521605477
 C        -7.2824716680        3.5072298773       -5.0902455571
 O        -6.7033502550        3.6468693443       -4.0306081240
 C        -8.3828135984        2.5008841768       -5.1836000310
 C        -8.1189430083        1.1750935934       -4.4932986627
 C        -8.9521705424        0.9276183826       -3.1839891265
 O        -9.5278611824        1.8263695944       -2.6238150429
 C        -8.8031396818       -0.4031086890       -2.3968418042
 C        -7.6107683744       -0.1895593186       -1.3279944028
 O        -6.5129054508       -0.0869891846       -1.7463877528
 C        -8.0390428150       -0.0231909120        0.1834749643
 C        -6.8487839335        0.6887663391        0.8300835831
 C        -6.8174057287        2.1265308410        0.3290709502
 O        -7.7913145413        2.6121340604       -0.2040375903
 C        -5.5865933075        3.0466841704        0.6033891786
 C        -5.8960820866        4.6227287601        0.2702566165
 O        -6.5857982544        5.0058414240       -0.6726839250
 C        -4.9380213257        5.6725320132        0.9552070580
 C        -5.0939370571        2.7983752823        2.0242174307
 C        -4.4068999236        2.7916490860       -0.4515524002
 C       -10.1739705049       -0.8058346057       -1.8063036318
 C        -8.3905565428       -1.5565714164       -3.3129813809
 C        -6.8546499979        3.8597930916       -7.5627636259
 C        -5.8328417334        5.4718606221       -5.9836332992
 C       -12.2257843724        7.2925573229       -2.9999897174
 C       -10.0306833819        7.7324657318       -1.8402530537
 C       -14.8437707179        2.4810687383        1.5211264438
 C       -15.9059885509        4.5857254008        2.4346909754
 C       -11.9563394676        4.7719613029        9.1977672843
 C       -10.2504861855        4.5746783472        7.1590983194
 H       -11.2299841520        1.9664964292       10.0648548688
 H       -11.8405648546        0.7654263592        9.0054876187
 H       -12.9090710182        2.0224113235        9.4591594894
 H       -11.8632583174        3.6798972483        4.9912292974
 H       -12.2171849262        5.3886948398        5.2499433978
 H       -14.4434635158        5.2351709481        4.4226480661
 H       -14.5789769638        3.7110329754        4.9875900501
 H       -12.9099227209        3.4916891198       -0.3425451555
 H       -11.8218428464        4.2596905592        0.8845698962
 H       -12.4197997800        6.5586478121       -0.4017923268
 H       -13.2251487500        5.5515073881       -1.5668730881
 H       -10.1466830038        8.1685423885       -5.0059427573
 H       -10.7111997788        6.8145831108       -5.7440487206
 H        -7.8514001854        6.8606641940       -4.8309840430
 H        -8.1567916126        7.5430647351       -6.3082974823
 H        -8.6988820794        2.2499161121       -6.2465806316
 H        -9.2758883360        2.9847868653       -4.8011781276
 H        -7.0670685894        1.0683299064       -4.2419372102
 H        -8.3270539671        0.4235665796       -5.2521343387
 H        -8.1030797611       -1.0121160457        0.6549123922
 H        -8.9576206170        0.5924135625        0.2334904051
 H        -5.9183038092        0.1235909185        0.5239599097
 H        -6.8528646860        0.7074577458        1.9244243228
 H        -4.3892132976        6.1490233786        0.1387796897
 H        -4.3998604587        5.2048193231        1.7593097685
 H        -5.5740474469        6.4497409851        1.2853769647
 H        -4.1817666875        3.2941413828        2.3405019434
 H        -4.9293478384        1.7393011351        2.1550780326
 H        -5.8284666527        3.1351622110        2.7246155135
 H        -3.5915082517        3.4059646942       -0.0494768178
 H        -4.6821404418        3.0028480725       -1.4668854031
 H        -4.0710934786        1.7803509531       -0.5284212918
 H       -10.9247483767       -0.9159208626       -2.5790755451
 H       -10.6191508173       -0.0517673831       -1.1430636597
 H       -10.0167051890       -1.7175484521       -1.2617328341
 H        -8.2814624202       -2.4838461314       -2.7715903152
 H        -7.3984245593       -1.3136759764       -3.6446627304
 H        -8.8937922920       -1.6295187759       -4.2380751037
 H        -7.7516213990        3.5111159907       -8.0747993186
 H        -6.2276103466        3.0144251500       -7.3062261453
 H        -6.2260187480        4.4510486464       -8.2439978965
 H        -5.8203909109        6.1432137454       -5.1182368736
 H        -5.7435708350        6.1317178042       -6.8861925928
 H        -5.0009205350        4.8537468781       -6.0315446306
 H       -12.1121298788        7.9433729178       -3.8181732971
 H       -12.7532004982        7.8528544436       -2.2705832535
 H       -12.9262703860        6.4837250318       -3.3684413289
 H        -9.7331850436        8.5906438506       -2.4330936427
 H        -9.0870935601        7.3123971969       -1.3767100141
 H       -10.5340815909        8.1454425740       -0.9785664589
 H       -14.0271353723        2.0494385698        0.8654511517
 H       -15.6497087743        2.6245625647        0.8664471732
 H       -15.1474867378        1.8035605216        2.3200518897
 H       -16.4982477966        4.8100673543        1.5650448120
 H       -15.6861850782        5.5252866400        2.9512130489
 H       -16.5672276151        3.9341964544        3.0492403500
 H       -11.7109848691        5.8461792176        9.2851057196
 H       -11.3850938684        4.2585604474        9.9242526473
 H       -12.9999811528        4.6544415654        9.4643161980
 H       -10.1059512224        5.6413341669        7.2704552237
 H       -10.3186783480        4.3295935159        6.1320836455
 H        -9.3488865429        4.0219397658        7.4457507913
 Na       -8.2579218322        3.7578980824       -2.1484549071
