117

 C       -11.7466473628        1.9863499722        9.4441740157
 C       -11.2279281232        2.6861779521        8.1560042460
 O       -10.8038102952        1.9313884242        7.3213741140
 C       -11.3517985418        4.2595406519        7.8995423458
 C       -12.5107781464        4.4956289648        6.8007283319
 O       -13.4673590692        5.1010208400        7.1573889468
 C       -12.2856893858        4.0994664244        5.3091158575
 C       -13.5843570193        4.1995940078        4.5116401760
 C       -13.3480752600        3.9597812917        3.0048974637
 O       -12.2275290529        3.6966751366        2.6744221209
 C       -14.5467457127        4.0747490568        1.9481976032
 C       -14.0485847900        5.2309262411        0.9465571242
 O       -14.6343729450        6.2850632162        0.8942817019
 C       -12.9369688614        4.9154797856       -0.0137024477
 C       -12.6959658350        5.9723864427       -1.0481403978
 C       -11.3652312014        5.7797346607       -1.7329260097
 O       -10.7633703533        4.7746722366       -1.6631981933
 C       -10.8493554680        6.8957409429       -2.7665781295
 C        -9.8382967742        6.3227844597       -3.7969734073
 O        -8.8720489372        5.7035798916       -3.4053265766
 C        -9.9110964066        6.7248116183       -5.2690045522
 C        -8.5471251722        6.6162073391       -6.1938306663
 C        -8.4189202415        5.1069473937       -6.5211247844
 O        -9.3402603017        4.4991640351       -7.0453220769
 C        -7.1101966630        4.2504623134       -6.1964564613
 C        -7.5258213798        3.3310262349       -4.9990779071
 O        -7.0883262029        3.5532394121       -3.9121353956
 C        -8.6284111632        2.2590364154       -5.2504498240
 C        -8.3692018056        0.8219901348       -4.5420449530
 C        -8.8370052973        0.7751576826       -3.0406457614
 O        -9.4349322523        1.6630282062       -2.4901755735
 C        -8.6119319110       -0.5643756749       -2.2756401868
 C        -7.4966381861       -0.5384511323       -1.2719475642
 O        -6.3779298698       -0.3195986712       -1.6604182127
 C        -7.7250232223       -0.4009506299        0.3291514013
 C        -6.6675261691        0.5266836717        0.9196425931
 C        -6.9413449825        1.9758035043        0.5771949776
 O        -7.9790832612        2.4197210441        0.1629790154
 C        -5.6424515570        2.8814309032        0.6874066346
 C        -6.1365420384        4.4507800353        0.4687561619
 O        -6.7708416887        4.7661877538       -0.5168089243
 C        -5.6114048242        5.6307806949        1.3839293310
 C        -5.0509795176        2.7164054118        2.0944952896
 C        -4.6579136075        2.5381301008       -0.4485060592
 C       -10.0308728977       -0.8146985576       -1.6252979763
 C        -8.3674445375       -1.7884611321       -3.2594470182
 C        -6.7495822949        3.3720770107       -7.3717953807
 C        -5.8210411679        4.9726436763       -5.8490580096
 C       -12.0436134086        7.7054793454       -3.4723616166
 C       -10.0432340585        7.8263259873       -1.7344810869
 C       -14.6895717992        2.7209335520        1.3111800330
 C       -15.8725715576        4.5960341140        2.6452548628
 C       -11.9073455195        4.8856442597        9.1984241948
 C       -10.0595628531        4.8828933013        7.3152804602
 H       -10.9217795640        1.9021599957       10.1817655455
 H       -12.1085753218        0.9799525634        9.1796738133
 H       -12.5352089632        2.5096444736        9.9749182058
 H       -11.6741950446        3.2074005807        5.1964400823
 H       -11.5712474669        4.8763804695        4.9369072112
 H       -13.9763605544        5.2675704517        4.6862793322
 H       -14.2641275184        3.4233253252        4.8914951788
 H       -13.0928230113        4.0315760829       -0.5945963473
 H       -12.0413127185        4.7797624941        0.5723573616
 H       -12.5890252509        6.9491241451       -0.5642789797
 H       -13.5741577156        6.0391684644       -1.6939379678
 H       -10.3880432939        7.7052001272       -5.4384710979
 H       -10.6272482873        6.0494941074       -5.8089844808
 H        -7.6232794504        7.0170467704       -5.8102217928
 H        -8.7486324560        7.0762123511       -7.1839025464
 H        -8.8998000474        2.1599003992       -6.3317939515
 H        -9.5482131826        2.6459090667       -4.8734177369
 H        -7.2746931581        0.5971715564       -4.4858803285
 H        -8.9235192503        0.0752140686       -5.0896592967
 H        -7.5564775642       -1.3317012235        0.8803385889
 H        -8.7191476941       -0.0648907372        0.5677081042
 H        -5.7276326009        0.2412153766        0.4070649753
 H        -6.6322869861        0.3233513579        1.9651306352
 H        -4.4537907615        5.6417554546        1.2599533647
 H        -5.7505196317        5.5460315515        2.4289514578
 H        -6.1658351633        6.5125593997        1.1108075101
 H        -4.1614276780        3.3134986482        2.2653627483
 H        -4.7597240102        1.7262922716        2.4039415387
 H        -5.7227145203        2.9371231629        2.8721833597
 H        -3.8541779646        3.3155189784       -0.5649344267
 H        -5.0065224312        2.4959126951       -1.4698184615
 H        -4.1595790236        1.6068949696       -0.1335515698
 H       -10.7466743460       -1.1653963820       -2.3662652198
 H       -10.3650664223        0.0265621348       -0.9953159852
 H        -9.9293761279       -1.6823726933       -1.0029678527
 H        -8.6667124041       -2.7249080455       -2.7495231721
 H        -7.2958568681       -1.8967194056       -3.4803068530
 H        -9.0055290727       -1.8653909194       -4.1496568425
 H        -7.5953057268        3.0748305630       -7.9490761217
 H        -6.1871328499        2.5079707130       -7.1692579182
 H        -6.1931602251        4.0374590180       -8.0227819693
 H        -5.7764400606        5.4221950911       -4.8443136276
 H        -5.4388643647        5.6533826369       -6.6625690042
 H        -5.0657433783        4.2592276725       -5.7971925320
 H       -11.7732464703        8.2887087169       -4.3143760977
 H       -12.4568816393        8.3276130483       -2.7065350323
 H       -12.8111696657        6.9217310200       -3.7756013576
 H        -9.6397805966        8.7536700826       -2.1903819552
 H        -9.0810482322        7.3021373007       -1.3798061705
 H       -10.6603226103        8.1111764169       -0.8831536970
 H       -13.7021746237        2.4080707508        0.8465882493
 H       -15.3752570852        2.7779953881        0.5362278908
 H       -14.9842348980        1.9484942128        2.0099738819
 H       -16.3558336373        5.0300023158        1.8496293920
 H       -15.5860270289        5.3841115418        3.2976266446
 H       -16.4686848635        3.8667415599        3.1800565520
 H       -11.4730173212        5.9106109578        9.2321541683
 H       -11.6001860399        4.3842863174       10.1120547607
 H       -12.9961515785        4.8735459259        9.2905224117
 H        -9.8500525175        5.9199185615        7.6655329843
 H       -10.1956391059        4.9937411808        6.2543912982
 H        -9.2332626051        4.1698092673        7.5625217941
 Na       -8.5497262926        3.7583142010       -1.9123286281
