117

 C       -11.7777724063        2.0252998138        9.3726600179
 C       -11.2941096437        2.6439333959        8.1092639740
 O       -10.7782822709        2.0475582325        7.1717262505
 C       -11.3884681104        4.2902156323        8.0062578516
 C       -12.5445699915        4.5048874780        6.8973707141
 O       -13.6288841851        4.8412707959        7.2592962181
 C       -12.4125634203        4.0729328879        5.4066840828
 C       -13.6723657607        4.1256923866        4.6180343935
 C       -13.4015384821        3.9113989931        3.0994210946
 O       -12.3554770449        3.5386901832        2.6216234541
 C       -14.5563171401        4.1365772173        1.9929318155
 C       -14.0916163489        5.2133625946        0.9753796740
 O       -14.6522713284        6.2783523168        0.9651287421
 C       -12.9380942475        4.9060274350       -0.0505670398
 C       -12.7300422439        5.9502243136       -1.1650441698
 C       -11.3946514564        5.6756387694       -1.8656650168
 O       -10.6912604760        4.7545760098       -1.4440369139
 C       -10.7924860287        6.8220931669       -2.7785770736
 C        -9.7291494612        6.3921322718       -3.8344732260
 O        -8.8210512265        5.6205221798       -3.4195898671
 C        -9.8544235967        6.8818328273       -5.3270493616
 C        -8.6228616285        6.6428862290       -6.1752941343
 C        -8.3790207399        5.1694382334       -6.6287926000
 O        -9.3511604672        4.5968951101       -7.0527470524
 C        -7.0964741738        4.3052856928       -6.2665641407
 C        -7.5716627750        3.3835697432       -4.9882095263
 O        -7.1391603622        3.6308815501       -3.9024314506
 C        -8.6292914030        2.2630588154       -5.1442194956
 C        -8.2553276268        0.8782748503       -4.5159353716
 C        -8.8207344477        0.7663363366       -3.0962085194
 O        -9.2614330799        1.7573891613       -2.5703082092
 C        -8.7430453697       -0.5880721571       -2.2896975263
 C        -7.3857817499       -0.3972287293       -1.3217433674
 O        -6.2784994577       -0.2888334403       -1.7634690237
 C        -7.7228611517       -0.4062170214        0.1685130708
 C        -6.7146605767        0.4868493262        0.8844128607
 C        -6.9579232165        2.0565783031        0.5791472751
 O        -8.0370144153        2.4747214974        0.2644380505
 C        -5.7088125492        3.0350744949        0.7945370151
 C        -6.0117316046        4.4877636415        0.4080516876
 O        -6.6459764384        4.7061180188       -0.6292152010
 C        -5.4968231167        5.5308807205        1.3318173609
 C        -5.0836652636        2.7318890726        2.1361751376
 C        -4.7664488831        2.6066402899       -0.3734197225
 C       -10.0508213414       -0.8252552162       -1.4535182764
 C        -8.4607861993       -1.7861819962       -3.2667333126
 C        -6.7429187604        3.2981110852       -7.4731569074
 C        -5.8908219718        5.1505158684       -5.8148795639
 C       -12.0160633200        7.5894475202       -3.3714847613
 C       -10.0340334961        7.7270456875       -1.8065302609
 C       -14.6954971140        2.7872078420        1.2426411382
 C       -15.8915727055        4.4653981538        2.6836982405
 C       -11.7728940528        4.9482650726        9.2737897581
 C        -9.9438663663        4.7787879343        7.4475263846
 H       -10.9596466551        2.1056719874       10.1632071078
 H       -11.9671576707        1.0238227226        9.2277325524
 H       -12.6693413062        2.4955644081        9.8143636694
 H       -12.0461593064        3.0759932751        5.4063012972
 H       -11.5815459312        4.5856357000        4.9029417351
 H       -14.1885489861        5.0469924133        4.6767111420
 H       -14.2909332917        3.2372024097        5.0094948766
 H       -12.9548487923        3.9826908729       -0.6377504864
 H       -11.9903344184        4.9406263444        0.5476320717
 H       -12.7035241169        6.9709816134       -0.8441272573
 H       -13.5808626052        5.8505218287       -1.8854808769
 H       -10.0197617872        7.9160410872       -5.3084220319
 H       -10.7809833373        6.5508576452       -5.8898322722
 H        -7.7233697761        7.0436851388       -5.6601737449
 H        -8.7249140504        7.2640851492       -7.1095627815
 H        -8.7099678526        2.0856721099       -6.1946647661
 H        -9.6816318079        2.5518271153       -4.9095004486
 H        -7.2063130180        0.6758175599       -4.6107993995
 H        -8.8527699831        0.1796491067       -5.0562717449
 H        -7.5823774448       -1.4513086483        0.5046811563
 H        -8.6853332694       -0.0843420429        0.3700379153
 H        -5.7067530566        0.1421647883        0.6148803339
 H        -6.9646895438        0.3546821487        1.9693539356
 H        -4.5768964731        5.7807636714        0.9519963449
 H        -5.3018385290        5.1991767494        2.3250976813
 H        -6.1810358915        6.3253210918        1.4357836748
 H        -4.1105494453        3.1701029037        2.1675847733
 H        -4.9625210721        1.7219581905        2.4159185781
 H        -5.5902048093        3.0995884171        2.9696421828
 H        -4.1787024156        3.3937404785       -0.8376571026
 H        -5.2290152319        2.1556816978       -1.2271345196
 H        -4.1035716185        1.8376870891        0.0836881828
 H       -10.8811944299       -1.0524920890       -2.1357781621
 H       -10.2540923327        0.0329113557       -0.8181737969
 H        -9.9778850671       -1.7382303987       -0.8673311172
 H        -8.3935825419       -2.6811928665       -2.7368128946
 H        -7.5291161648       -1.6401049904       -3.7661598946
 H        -9.2855504539       -2.0769560209       -3.9617792271
 H        -7.5991849886        2.7817672869       -7.8680108189
 H        -6.0652952876        2.5048467752       -7.1387779927
 H        -6.2244707817        3.8113614980       -8.2852931965
 H        -6.0490137613        5.6172170301       -4.8537693732
 H        -5.6883286318        5.8836341228       -6.5893957640
 H        -4.9344820409        4.6193250043       -5.7424360499
 H       -11.7764561353        8.2511845651       -4.1995565160
 H       -12.4567004576        8.1788639912       -2.6170350004
 H       -12.7300772148        6.8267838749       -3.6746811264
 H        -9.4959765812        8.5538750552       -2.3469130098
 H        -9.1887811831        7.1753222653       -1.3621461899
 H       -10.6605590881        8.1720472616       -1.0286741393
 H       -13.7599288034        2.6403379757        0.7096451982
 H       -15.4169484755        2.8971342979        0.4333548444
 H       -14.8574739865        1.9356896933        1.8604191903
 H       -16.5064930179        4.8229059071        1.8963167051
 H       -15.7868626991        5.2286916120        3.4041787454
 H       -16.2764461771        3.5877986342        3.1937102478
 H       -11.3020218927        5.8876704764        9.2882532879
 H       -11.4956558085        4.3725721875       10.1677561885
 H       -12.8451130602        5.0356361012        9.3986315767
 H        -9.8153214914        5.8303865070        7.7448730128
 H        -9.8348333465        4.7886994077        6.3746419458
 H        -9.2391494551        4.1813525390        7.9977481932
 Na       -8.4856596320        3.7228536629       -2.0101472381
