117

 C       -11.9152990326        2.1460614099        9.2983535752
 C       -11.3143810594        2.7883466692        8.0380612219
 O       -11.0111798690        2.0398214305        7.1357605682
 C       -11.2584870392        4.4301904549        7.9026915387
 C       -12.1823684523        4.9035712241        6.7045000007
 O       -12.9773172357        5.7832904483        6.8400432265
 C       -12.0828762302        4.1547487744        5.2718807306
 C       -13.4209541678        4.3613742975        4.4651842511
 C       -13.1474436373        4.2782073088        2.9818241536
 O       -12.0392828514        4.1949607309        2.5171459292
 C       -14.4138235032        4.2753501174        1.9448634682
 C       -14.1692917572        5.3305611300        0.8277116390
 O       -14.8223680227        6.3377586236        0.7021593034
 C       -13.0968446354        4.9600675402       -0.3073522489
 C       -12.3927401796        6.1368411602       -1.0016831318
 C       -11.2827004925        5.6963533700       -1.9547117054
 O       -10.8379065843        4.5662299470       -1.9754214993
 C       -10.6743626060        6.9232482854       -2.7900924052
 C        -9.4727356801        6.5078468076       -3.7858698753
 O        -8.4713182812        5.9138172050       -3.4166997891
 C        -9.6494912637        6.9609439581       -5.3388828435
 C        -8.3946935751        6.3402998831       -6.1713504489
 C        -8.4445207982        4.8174764287       -6.2723228033
 O        -9.3886593456        4.2006335650       -6.6885644695
 C        -7.1664160173        3.9804503210       -5.9227303896
 C        -7.6663468471        3.0799823787       -4.7083551000
 O        -7.0273828447        3.1942256677       -3.6927528388
 C        -8.8111037298        2.0292443338       -4.8079111071
 C        -8.4444081203        0.6490683238       -4.3064317424
 C        -8.9472911498        0.4279287629       -2.8626908739
 O        -9.6508360925        1.2397263532       -2.3745405405
 C        -8.7879406531       -0.9393651394       -2.1784244127
 C        -7.5759584479       -0.5683085499       -1.1568047071
 O        -6.4645075117       -0.4202345975       -1.5553694923
 C        -8.0488015757       -0.2337070506        0.2674490998
 C        -7.1579362452        0.6747924918        1.0207451353
 C        -6.9370576489        2.0287927478        0.1852233343
 O        -7.7991024099        2.2126487864       -0.6212835986
 C        -5.8323756850        3.0809931021        0.4707657459
 C        -6.4298862476        4.5512620733        0.6000662433
 O        -7.2459050398        5.0008664079       -0.1694814118
 C        -5.8835575547        5.3283800709        1.8154012166
 C        -4.9886192680        2.7207257575        1.7270417090
 C        -4.9027865581        2.9552006659       -0.7613355745
 C       -10.1018825986       -1.3827576472       -1.5008565151
 C        -8.2260427397       -2.1131878421       -3.0197939662
 C        -6.8196959659        3.1182436006       -7.1796987660
 C        -5.9680807118        4.7912216416       -5.5306256967
 C       -11.8635983015        7.6447497369       -3.5742634727
 C       -10.0684126658        7.9657916427       -1.7592880924
 C       -14.4597033393        2.8266288831        1.4546249091
 C       -15.6915967935        4.6186982451        2.7191286391
 C       -11.7393238604        5.0398867488        9.1465464806
 C        -9.7844740365        4.9220491325        7.4782077236
 H       -12.4900589435        2.9314967832        9.9052073913
 H       -11.2436940800        1.6105079525        9.9048882242
 H       -12.7490951869        1.4683090611        9.0214310429
 H       -11.8963796490        3.0564985137        5.3745480012
 H       -11.1902899974        4.5870385347        4.7564082583
 H       -13.6952270939        5.3960536373        4.6320431549
 H       -14.2350767927        3.6361457276        4.7866326770
 H       -13.5322753944        4.3979036955       -1.1172728429
 H       -12.4305481167        4.2516293047        0.1231981520
 H       -11.9302405489        6.7672959125       -0.2438704665
 H       -13.1819571407        6.7120960033       -1.4984691432
 H        -9.6907828964        8.0342642262       -5.5317730141
 H       -10.4798402664        6.3551781368       -5.7997554044
 H        -7.4525791213        6.5407422919       -5.7192655345
 H        -8.4516486439        6.6630766664       -7.1927041701
 H        -9.1932491293        1.9931823442       -5.7907768514
 H        -9.6333548759        2.3768451940       -4.1180012437
 H        -7.3598783977        0.4714388976       -4.2689630683
 H        -8.8761851741       -0.1967803750       -4.9340116235
 H        -8.1647484471       -1.2466411786        0.8025980618
 H        -9.1069965171        0.0664980800        0.3406280585
 H        -6.2758110483        0.1318824592        1.2474809662
 H        -7.6500836789        0.8892364992        1.9728618452
 H        -4.7772838168        5.5038378498        1.7798503224
 H        -5.9954497728        4.6570562843        2.7249575882
 H        -6.3501116972        6.3464294302        1.9514853853
 H        -4.2174105987        3.3890869114        2.1207796745
 H        -4.4548445923        1.7884558349        1.5066441220
 H        -5.5936284090        2.4852156236        2.5940766831
 H        -4.3915905042        3.9236887424       -0.8894232654
 H        -5.4943931162        2.8404777627       -1.6528941404
 H        -3.9821728446        2.3216161537       -0.7090817132
 H       -10.7179905974       -1.8725760216       -2.2567216497
 H       -10.7561048859       -0.6102096866       -1.1171342241
 H        -9.8097816116       -2.0617073540       -0.7022809952
 H        -8.3317798133       -2.9749606590       -2.3865724344
 H        -7.1604467595       -2.0896550226       -3.2924067545
 H        -8.7815667099       -2.1484831419       -4.0138379659
 H        -7.7260725295        2.7011357668       -7.5563500725
 H        -6.0967381223        2.3455671061       -6.9597749777
 H        -6.4235732147        3.7443151696       -7.9595237727
 H        -6.2787964320        5.4919555328       -4.7517716776
 H        -5.6251811925        5.4429555090       -6.3311186419
 H        -5.1219015038        4.1702298450       -5.1316743660
 H       -11.4369882001        8.4259179791       -4.2386174181
 H       -12.5060543064        8.0818232819       -2.8350505426
 H       -12.3412023034        6.8910528866       -4.2137312317
 H        -9.6843464527        8.8687484930       -2.2959983396
 H        -9.3305895850        7.4345705045       -1.1605324665
 H       -10.7896456508        8.3551583788       -1.0333591694
 H       -13.5198311316        2.6086595164        0.9548435780
 H       -15.3210449349        2.6361600599        0.7823640877
 H       -14.5645286879        2.0775198145        2.2139546688
 H       -16.4989247434        4.9858528577        2.1174333042
 H       -15.4014051167        5.3661242133        3.4087568378
 H       -16.0414726611        3.6956765814        3.1768299007
 H       -11.4132957645        6.0627534125        9.3259839675
 H       -11.2775225436        4.5252666399       10.0472758896
 H       -12.8431358792        5.1233934351        9.1176399893
 H       -10.0199382942        5.6295701717        6.6686452805
 H        -9.0382090013        4.1375320039        7.2406399802
 H        -9.3474421822        5.5451948236        8.2655545351
 Na       -8.6325278477        3.7751104801       -2.1248562867
