117

 C       -11.9918058488        2.2442194297        9.2584873321
 C       -11.3628867263        2.8692071970        7.9960892271
 O       -10.8407215490        2.1267149743        7.1792575598
 C       -11.3044927043        4.3901417472        7.8596298792
 C       -12.2568865251        4.8881891344        6.6339751863
 O       -12.8772735920        5.8982437388        6.8983844191
 C       -12.0573974529        4.3660436100        5.2635067151
 C       -13.3734551845        4.4638914587        4.4603714444
 C       -13.1346084109        4.3890727025        2.9248004813
 O       -12.0388987806        4.2672401844        2.4365886498
 C       -14.3966541435        4.2828900056        1.9691810337
 C       -14.1643668121        5.3176292883        0.7548297747
 O       -14.7791201847        6.3849512563        0.7212114623
 C       -13.1077913097        4.8819811464       -0.2501218436
 C       -12.4115630599        6.0456280834       -1.0347827739
 C       -11.2380869070        5.7134409445       -1.9520408936
 O       -10.7425096173        4.6455533681       -2.0012943480
 C       -10.5967067213        6.8929191072       -2.8748105930
 C        -9.4615623980        6.4938125287       -3.8487781277
 O        -8.4781669379        5.9138139812       -3.4554773664
 C        -9.5197183312        6.8863333392       -5.2954474259
 C        -8.3700150413        6.3942444913       -6.2357414540
 C        -8.4482946877        4.7820972673       -6.3059046401
 O        -9.5201762365        4.2779001065       -6.6208201739
 C        -7.2052945648        3.9045918033       -5.8937537889
 C        -7.5054931283        3.0054011619       -4.6426265227
 O        -7.0242820304        3.1294829484       -3.5465272398
 C        -8.7161167688        2.0409094083       -4.8071205053
 C        -8.3972395034        0.6364780255       -4.3074972419
 C        -9.1621292633        0.3334826404       -2.9014864649
 O        -9.7859632352        1.2341672530       -2.3684670130
 C        -8.8095640727       -1.0405215898       -2.1123089018
 C        -7.7119212038       -0.6226463775       -1.1546242413
 O        -6.5130568297       -0.5244746467       -1.5280862606
 C        -8.0660230556       -0.2183176310        0.3534491742
 C        -7.1155383415        0.7783423807        1.0570450334
 C        -7.0614777760        2.0436356760        0.2296194826
 O        -7.8962156584        2.2528847862       -0.6423917022
 C        -5.7950477740        3.1052647117        0.3680048360
 C        -6.4521284571        4.5088705323        0.6317533835
 O        -7.3457390269        4.8931840672       -0.1347110218
 C        -6.1122760242        5.4166159425        1.8202402455
 C        -4.9723987999        2.6214181539        1.6310169247
 C        -4.8884382323        3.1336255869       -0.9172689322
 C       -10.1061610153       -1.4828219542       -1.4717322825
 C        -8.1561031864       -2.1267013016       -3.0262324330
 C        -6.9069915524        3.1487981006       -7.2688367880
 C        -5.9478603077        4.6606927664       -5.4000284179
 C       -11.7852623379        7.5608265117       -3.5784209150
 C        -9.9418569135        7.8941845880       -1.8422532930
 C       -14.3935240737        2.8307680549        1.4219184569
 C       -15.7364987492        4.5852869387        2.8494911972
 C       -11.7577335189        5.0838732302        9.1852032698
 C        -9.7961508398        4.6619365619        7.3394298779
 H       -12.8115542365        2.8122469865        9.6810457915
 H       -11.1485171578        2.2671650697       10.0039453373
 H       -12.3460362019        1.2353361365        9.1682578376
 H       -11.8047832347        3.3414202782        5.3861164113
 H       -11.1919656515        4.8840957870        4.7488061043
 H       -13.8532227084        5.3621530616        4.6906182309
 H       -14.0272198675        3.5844014110        4.6970927888
 H       -13.2704396658        4.0600725979       -0.9386595838
 H       -12.4343960635        4.3982981595        0.5243435285
 H       -12.0115303051        6.7205860973       -0.3003063043
 H       -13.2393206930        6.5840346254       -1.5408368357
 H        -9.3331511823        7.9082780178       -5.3153399027
 H       -10.4552382014        6.5812329466       -5.8375178672
 H        -7.3902450398        6.6441933408       -5.8423746774
 H        -8.6293342401        6.8563668105       -7.2071041744
 H        -8.9400934079        1.9647661663       -5.8781118311
 H        -9.6200659210        2.3820873312       -4.2388614723
 H        -7.3212369104        0.4542396574       -4.0696474364
 H        -8.6854993953       -0.1306877984       -5.0463816966
 H        -8.1564073243       -1.1987229774        0.9435245574
 H        -9.0869711170        0.0934501070        0.4810664384
 H        -6.1128686137        0.3380502783        1.1852548300
 H        -7.4885429130        0.9690288736        2.0767237462
 H        -5.0383437014        5.8973112335        1.6363290432
 H        -5.9798170282        4.8430841369        2.7130901942
 H        -6.7756019558        6.2743720545        1.9041225043
 H        -4.3169391169        3.4027503589        2.1259054337
 H        -4.2670387899        1.7632494739        1.4387236096
 H        -5.6139773276        2.3121158295        2.4714862118
 H        -4.1350018085        3.9762063911       -0.9383812202
 H        -5.4418584137        3.0935837251       -1.8441770571
 H        -4.1449943879        2.3268111023       -0.8560143246
 H       -10.6666989194       -1.9233337923       -2.2877528124
 H       -10.7702331972       -0.6680031168       -1.1769070233
 H        -9.9599456578       -2.1377233526       -0.6546323683
 H        -8.4085859550       -3.0190945632       -2.4746652498
 H        -7.0720156551       -2.1416777668       -3.0590810503
 H        -8.4655201316       -2.0922574763       -4.0975681213
 H        -7.8070057496        2.8196271153       -7.7993700801
 H        -6.2662758109        2.3068158440       -7.0429315112
 H        -6.2817989590        3.8022797789       -7.9212052936
 H        -6.1861976277        5.4703724307       -4.6875890663
 H        -5.4989923151        5.2374937174       -6.2537220204
 H        -5.2487070162        3.9947709031       -5.0245285665
 H       -11.5261819789        8.4888530205       -4.0895950589
 H       -12.5634354092        7.6998665731       -2.8523299320
 H       -12.0533600242        6.7520668224       -4.3599108687
 H        -9.6509535297        8.8204940024       -2.3081322164
 H        -9.1282253810        7.3433020153       -1.3177597902
 H       -10.6246521353        8.1381029441       -1.0802240382
 H       -13.3161945596        2.5535406041        1.0870578210
 H       -15.0168669177        2.7772970956        0.5565202967
 H       -14.7409974928        2.0168643245        2.0709433766
 H       -16.5874948003        4.7976792992        2.2111783179
 H       -15.5566742903        5.4786265220        3.4709712339
 H       -16.0106885996        3.6358052428        3.3914856987
 H       -11.5898808477        6.1662305779        9.0261504737
 H       -11.0887202116        4.8953173211       10.0212027816
 H       -12.8426043805        5.0789772661        9.3719594426
 H        -9.8198455594        5.4814225764        6.6001279375
 H        -9.3089767026        3.7533030567        7.0173614077
 H        -9.2243802586        5.0133479060        8.2265640342
 Na       -8.6055644668        3.8506450941       -1.9809529247
