117

 C       -12.8608872375        3.2769614459        8.4099030743
 C       -11.3956327125        3.3597390506        7.8109985215
 O       -10.7742901287        2.3332915929        7.6582411813
 C       -10.9130554308        4.7966342353        7.3733193094
 C       -12.0370916639        5.3082677713        6.3803721053
 O       -13.1341187746        5.6829417708        6.7963123114
 C       -11.7210027693        5.2806627395        4.8749549555
 C       -12.8397654208        5.7057504883        3.9212066199
 C       -12.6457650261        4.9237402384        2.6426926069
 O       -11.5286444719        4.6099794138        2.2998392941
 C       -13.9402064003        4.6197688462        1.9007672387
 C       -13.7091850783        5.5022581001        0.5776543555
 O       -13.9893487716        6.6980257658        0.5656880226
 C       -12.9013870935        4.8173989376       -0.5476859412
 C       -12.5197009796        5.7098521729       -1.7475032778
 C       -11.0954657473        5.5933280032       -2.1803719435
 O       -10.4953431562        4.5579394363       -1.9159273759
 C       -10.3960639826        6.9041465998       -2.8135382096
 C        -9.3596645324        6.3280302156       -3.8012894643
 O        -8.2695944985        5.9072947593       -3.4589471961
 C        -9.7637822568        6.3815308481       -5.2400989476
 C        -8.6613580889        5.8514073845       -6.2205052495
 C        -8.7980283072        4.3190599077       -6.3819108608
 O        -9.8580780677        3.7311592497       -6.3811598498
 C        -7.5133978591        3.4256487228       -6.2865436370
 C        -7.7362093125        2.7968805133       -4.8829065177
 O        -7.2025203798        3.3401490251       -3.9097416423
 C        -8.5665553299        1.5316491567       -4.6660736018
 C        -8.1985730733        0.5825320397       -3.4978606837
 C        -9.4667311997        0.0702479479       -2.7494243463
 O       -10.6150694658        0.3304480224       -3.0573686743
 C        -9.1566155894       -1.0522366651       -1.7116918554
 C        -7.8004184435       -0.7417018550       -0.8295093146
 O        -6.7229816997       -0.9018138151       -1.3562732683
 C        -7.9906622486       -0.3170956371        0.6176439955
 C        -6.9367636932        0.6737162366        1.1231220243
 C        -6.7917065586        1.9738551846        0.3365728387
 O        -7.5206632463        2.0473280863       -0.6833689224
 C        -5.9880496584        3.1576326379        0.9228225049
 C        -7.0809635771        4.2003653436        1.2838224369
 O        -7.4724111497        4.8425165137        0.2855556072
 C        -7.6695906358        4.5143450471        2.6537714903
 C        -5.1429547087        2.6887422296        2.1098960033
 C        -5.0139465805        3.6944533798       -0.2328904850
 C       -10.3544724094       -1.3920517357       -0.7693527800
 C        -8.8597189525       -2.3213585823       -2.6698498785
 C        -7.4497815346        2.3607164478       -7.4309500535
 C        -6.2012665994        4.1863487971       -6.3047252130
 C       -11.3928340685        7.9035135361       -3.3863290063
 C        -9.6253840108        7.5649884349       -1.5854424886
 C       -14.0737049954        3.0907625335        1.6090215122
 C       -15.2477404330        5.0842914796        2.5047408752
 C       -11.0315136329        5.6670509778        8.6451547761
 C        -9.4618144709        4.7112607644        6.7955560261
 H       -13.1653367468        3.8148232466        9.3903895507
 H       -13.2072971901        2.2693380335        8.4545553491
 H       -13.4071669528        3.7183537820        7.5759479698
 H       -11.2554469254        4.3097554676        4.5259475627
 H       -10.8123507943        5.9328498474        4.7971598929
 H       -12.7323889729        6.8505873693        3.8801668710
 H       -13.8125936979        5.4906654748        4.3993592269
 H       -13.5696696298        4.0372478031       -0.8894319869
 H       -12.0198381460        4.4113592694       -0.1237938987
 H       -12.7116750345        6.7626571588       -1.4454075799
 H       -13.2391055027        5.6184032498       -2.5607226823
 H       -10.1418069973        7.4654562858       -5.4273308191
 H       -10.6409727309        5.7739641713       -5.1839456370
 H        -7.6585216153        6.1241925647       -5.8699678505
 H        -8.7577148435        6.3423595748       -7.1829376272
 H        -8.6129195463        1.0042536009       -5.6511872053
 H        -9.5506617388        1.8916684570       -4.4911686668
 H        -7.7003708422        1.2480875609       -2.7505223791
 H        -7.5484902375       -0.2607449831       -3.7471763404
 H        -7.8905408988       -1.1906039460        1.2600151085
 H        -8.9525424510        0.2939745915        0.6342039689
 H        -5.9747510536        0.1867662068        1.2496174798
 H        -7.2432153823        0.8728531774        2.1205391651
 H        -6.8371550757        4.9917879220        3.2923795033
 H        -8.0489637734        3.6956802795        3.2282605819
 H        -8.5075324982        5.1594495413        2.5578711564
 H        -4.7077804169        3.5422118658        2.5959651674
 H        -4.3856906156        2.0739658687        1.6545260769
 H        -5.7623443384        2.0761836420        2.7584249969
 H        -4.6329187320        4.6948058789       -0.0089507608
 H        -5.4438062072        3.7378961509       -1.1944609177
 H        -4.0929026528        3.0249581981       -0.1937117825
 H       -11.1106493001       -1.9790791478       -1.2483701399
 H       -10.9011232219       -0.5550213160       -0.4000888501
 H        -9.9730023261       -1.9407312109        0.0947656555
 H        -8.7892282776       -3.2192591362       -2.0951537631
 H        -7.8852346320       -2.1880365765       -3.0907208172
 H        -9.5772900993       -2.3643892134       -3.4815181269
 H        -8.3668311764        1.7325216051       -7.4232060333
 H        -6.5054640916        1.7582535303       -7.2691924724
 H        -7.4560687978        2.8032829025       -8.4373412322
 H        -6.2247387085        4.7531662647       -5.4068551201
 H        -6.0782276423        4.7896498225       -7.1455615550
 H        -5.3287019641        3.4856630687       -6.2246965525
 H       -10.8634783881        8.6566787261       -3.9551133678
 H       -11.8901833802        8.4275267786       -2.6176153038
 H       -12.1096399188        7.5253544915       -4.0851636489
 H        -9.5636768814        8.6392156513       -1.7575884774
 H        -8.7046019351        7.0183094614       -1.4373815240
 H       -10.3022392964        7.4597096816       -0.7180961958
 H       -13.1681825358        2.5459141371        1.6410978310
 H       -14.6395783486        2.8465383575        0.6907376230
 H       -14.7193949318        2.6107188892        2.3191661434
 H       -16.1085361662        5.1795486789        1.8042604982
 H       -15.0635029442        6.0115976363        3.0317822801
 H       -15.6220709341        4.4038663458        3.2740036618
 H       -10.4390875267        6.5407011283        8.5863612312
 H       -10.7497584912        5.0973434036        9.5547912898
 H       -12.0702872365        5.9367947848        8.7059761798
 H        -9.6122394982        4.8255816754        5.7631201512
 H        -8.9703118498        3.7326328518        6.9072621496
 H        -8.7953207746        5.4557583336        7.1626303058
 Na       -8.1908559578        4.1151637548       -1.7349111477
