117

 C       -12.6109045827        3.4702063081        8.6560070516
 C       -11.3100510717        3.5403212795        7.8235451880
 O       -10.7511539405        2.5667779982        7.3397743285
 C       -10.9034845626        5.0510971157        7.4699533852
 C       -11.8318498813        5.5204877678        6.2385296365
 O       -12.9165580679        6.0032163723        6.4871220586
 C       -11.3742443869        5.3524476599        4.7357011558
 C       -12.5985769218        5.6683572496        3.8737532108
 C       -12.5632378463        4.8832406592        2.5772294948
 O       -11.6440385024        4.1669614074        2.1965970109
 C       -13.9062622582        4.8897022539        1.7719007784
 C       -13.6246892895        5.4426358761        0.2805132814
 O       -14.0499731295        6.5364580542       -0.0420699204
 C       -12.8939255919        4.5625446730       -0.7808906408
 C       -12.3197530301        5.4706881694       -1.9262834206
 C       -10.7847191373        5.5277021815       -2.0713716729
 O       -10.0737493559        4.6051504717       -1.7575134647
 C       -10.0578324950        6.7980986413       -2.7283726944
 C        -9.2156248437        6.2930018731       -3.8604500805
 O        -8.0820729490        5.8424616746       -3.6722563979
 C        -9.8101852885        6.3467596420       -5.3177807945
 C        -8.7944949967        5.6479721166       -6.2873444610
 C        -8.9931636977        4.1933772253       -6.4502983566
 O       -10.1009070560        3.7750499925       -6.6022885726
 C        -7.8292153116        3.1760336895       -6.3900765270
 C        -7.8734058279        2.6785580283       -4.9615400466
 O        -7.2350779145        3.2487467221       -4.0887145089
 C        -8.7585177125        1.4578334620       -4.4806326252
 C        -8.2869739884        0.5319243081       -3.3572435922
 C        -9.5310391544       -0.1401589984       -2.7227685013
 O       -10.6219119074        0.1871685650       -3.1134666852
 C        -9.2553829786       -1.2599227011       -1.7100615554
 C        -8.0026073243       -0.9108658002       -0.7280784068
 O        -6.8983096757       -1.0357914736       -1.1095411348
 C        -8.2494885479       -0.1419773601        0.5774888328
 C        -7.0735984331        0.6861490006        1.1074734759
 C        -6.9120494522        1.9886433203        0.5061132362
 O        -7.2947422057        2.2016651605       -0.6584868808
 C        -6.1108098830        3.1478467944        1.3242935477
 C        -7.2396611684        4.3369345833        1.4619068128
 O        -7.6898543614        4.9341060503        0.4486589928
 C        -7.7994294006        4.6593710005        2.8151125608
 C        -5.5798090188        2.7805467827        2.7707633821
 C        -4.9074480257        3.7266411317        0.4317114544
 C       -10.5123279598       -1.5503911032       -0.8014528038
 C        -8.8136408944       -2.5259077793       -2.5740020851
 C        -8.1387433167        2.0772060736       -7.3486455902
 C        -6.5178837174        3.8568670986       -6.7526061365
 C       -11.0795924593        7.8634274922       -3.2478934571
 C        -9.1825797219        7.4072446330       -1.6460902877
 C       -14.4367392459        3.4588879753        1.6450434130
 C       -14.9907138573        5.7666280434        2.4111018605
 C       -11.1848294561        5.8665319906        8.8060888910
 C        -9.4292225356        5.0961942322        7.1474544809
 H       -12.0827697597        3.5387552031        9.6167723965
 H       -13.1532888462        2.5435898782        8.5404357304
 H       -13.3498270627        4.3357977964        8.4986170557
 H       -10.9230720985        4.3643049584        4.5843971795
 H       -10.4827898314        5.9344478185        4.3270456030
 H       -12.6259298183        6.6891813648        3.5662470237
 H       -13.4847769615        5.3626427868        4.4755216628
 H       -13.6360607871        3.9090457150       -1.2019133723
 H       -12.1439363062        3.9164017843       -0.3048100331
 H       -12.7796329911        6.4330158362       -1.7744324335
 H       -12.6552382338        5.1679685035       -2.9346217347
 H       -10.1712928179        7.2931052954       -5.5133432017
 H       -10.6809096651        5.6912927011       -5.1933611967
 H        -7.7809259775        5.8456323266       -5.8835727408
 H        -8.9955147888        6.1047179444       -7.2901350336
 H        -9.0391777345        0.8388486154       -5.2905152169
 H        -9.7572882136        1.8319890337       -4.2019161178
 H        -7.7198157419        0.9960539289       -2.5280983658
 H        -7.6320175034       -0.1984631418       -3.8935249987
 H        -8.4641571874       -0.9392320515        1.3087886224
 H        -9.1819171148        0.3909139911        0.4817906544
 H        -6.1637218871        0.1387699326        0.9487707170
 H        -7.1731285583        0.7733837596        2.2065380317
 H        -7.1853956636        5.3206181284        3.4397341370
 H        -7.9292509937        3.6843261651        3.4459436239
 H        -8.8170576765        5.1222982411        2.6907508596
 H        -5.1869190085        3.6669075531        3.1594909410
 H        -4.9083863921        1.9915508228        2.6321928973
 H        -6.4072128134        2.4202555540        3.3759240771
 H        -4.0125995425        4.0921310323        0.8991409665
 H        -5.2610956011        4.4883248725       -0.2926858883
 H        -4.5311390003        2.8577194794       -0.1120529468
 H       -11.3100756283       -1.8693095340       -1.4523509899
 H       -10.8516454702       -0.7032741218       -0.2000599933
 H       -10.3392631196       -2.3972459073       -0.1569044958
 H        -8.5706474486       -3.3544694234       -1.8990789101
 H        -8.0440378703       -2.2468762180       -3.2938302296
 H        -9.6338868349       -2.8206695501       -3.1418442564
 H        -9.0131918174        1.5031354715       -6.9976419017
 H        -7.2808774875        1.3967879688       -7.3312479189
 H        -8.2007427297        2.4504996284       -8.3870002262
 H        -6.3183404623        4.7283297900       -6.1595894583
 H        -6.7085605923        4.1756494924       -7.7712889589
 H        -5.6648267524        3.1915652447       -6.7681980698
 H       -10.7136224524        8.7572210665       -3.6940495488
 H       -11.6940421361        8.2500312843       -2.3992185330
 H       -11.8220090042        7.5424562887       -3.8903875636
 H        -8.8404838956        8.3298784029       -2.1271876407
 H        -8.3962547584        6.6900928247       -1.4506982266
 H        -9.7682610087        7.5080300853       -0.7026122495
 H       -13.6018230637        2.8367024367        1.6350136656
 H       -14.9740185059        3.1872867205        0.7539724155
 H       -14.9299647431        3.2349034387        2.5991487967
 H       -15.6926050766        6.2745918034        1.7739440793
 H       -14.5734468772        6.6682702514        2.8543890817
 H       -15.4942255793        5.2283116794        3.1661204117
 H       -10.5340045507        6.7562479629        8.8004864431
 H       -10.9264866759        5.3208153924        9.6490312324
 H       -12.1431059616        6.3216903308        8.7953168409
 H        -9.0649441527        4.0887325551        7.0442400254
 H        -8.8949397386        5.4473570476        7.9926937440
 H        -9.1934045862        5.6815610059        6.2690220352
 Na       -7.7087458886        4.2023654588       -1.8680696793
