117

 C       -11.7919086512        3.4483290697        8.8718000314
 C       -11.0471473542        3.9007210170        7.6151690254
 O       -10.6701810652        3.0917857423        6.8155989983
 C       -10.8491723674        5.4005811468        7.3274420857
 C       -11.9579443368        5.9448032315        6.2896837332
 O       -12.7370159215        6.8269388659        6.5717754624
 C       -11.8104720035        5.3417498886        4.8515982606
 C       -12.9757695103        5.5066048180        3.9176235301
 C       -12.6767412279        4.9256222750        2.5682045963
 O       -11.6454676842        4.2911574058        2.3998443467
 C       -13.7536285963        5.0896837227        1.3832525366
 C       -12.9980738611        5.5098933651        0.1145403039
 O       -12.7387736574        6.6693774863       -0.1043537194
 C       -12.4473771293        4.3562967415       -0.8174647407
 C       -11.9696335515        4.7747344213       -2.1995300247
 C       -10.4837521218        5.1698756795       -2.1995972371
 O        -9.6818086774        4.3105869464       -1.8078817477
 C        -9.9543026680        6.5484913525       -2.7955371878
 C        -8.8573332202        6.2400326492       -3.9531431375
 O        -7.8558941316        5.5892266600       -3.6922804541
 C        -9.1712375277        6.7116422696       -5.3762314817
 C        -8.5038896269        5.6686371381       -6.2585109170
 C        -9.1802112833        4.2329332219       -6.0357125313
 O       -10.2993587832        4.1413152110       -5.5686282324
 C        -8.2453488793        2.9674862215       -6.3389644468
 C        -8.0992215724        2.3344966744       -4.8090514187
 O        -7.1987354545        2.6938034206       -4.0806665059
 C        -9.1422456889        1.3281961564       -4.3794964611
 C        -8.6785540892        0.5818506050       -3.1484328901
 C        -9.7004616098       -0.2844761767       -2.4874654175
 O       -10.8783134088       -0.0908539052       -2.5037679954
 C        -9.0842732519       -1.4667186253       -1.4496859238
 C        -8.1682798674       -0.7598033615       -0.4550009940
 O        -6.9493068356       -0.5753796922       -0.6478618109
 C        -8.8992526536       -0.0038550273        0.6515868249
 C        -8.0303539211        0.8907708575        1.4926629618
 C        -7.4818253399        1.9687681613        0.6201876178
 O        -7.7092739004        2.0441607978       -0.5621044132
 C        -6.5165764134        3.1069872155        1.2257846670
 C        -7.2675451507        4.4967775353        1.0729350664
 O        -7.1272352312        5.2030073257        0.1210722611
 C        -8.1167882682        4.9276074861        2.2069464798
 C        -6.2066661215        2.6999008926        2.6670391288
 C        -5.0972599472        3.1931530509        0.4640781302
 C       -10.3929517549       -2.0106318162       -0.7380226609
 C        -8.4072650136       -2.5345126106       -2.3134047494
 C        -8.9019299264        2.0111072438       -7.3777445930
 C        -6.7987778804        3.2494071106       -6.7983609081
 C       -11.0954859406        7.5052620117       -3.1667846142
 C        -9.3238946521        7.2107202002       -1.5177662330
 C       -14.5339078445        3.7249556792        1.1126634601
 C       -14.8220386011        6.1957781221        1.6049364119
 C       -10.9696367709        6.1727117432        8.6723104566
 C        -9.4903527211        5.5498608120        6.7293657554
 H       -11.4732735398        3.9943405802        9.7550952664
 H       -11.5240538966        2.3443313945        9.0211497105
 H       -12.8107606587        3.6528140802        8.6389463573
 H       -11.5491205436        4.2732013991        4.9206876481
 H       -11.0595245239        6.0721985329        4.4478612507
 H       -13.4213312061        6.5085784613        3.9810625218
 H       -13.8660825254        4.9144570278        4.2517318395
 H       -13.3017089329        3.7295025145       -1.0489390972
 H       -11.7878656751        3.6038342900       -0.3847528291
 H       -12.6297365300        5.5307709962       -2.6040170742
 H       -11.9101755276        3.8589555369       -2.8286854383
 H        -8.6988327273        7.7008590382       -5.4831610444
 H       -10.1739908298        6.8989703185       -5.4966725275
 H        -7.4194767387        5.6694134266       -5.9913746121
 H        -8.6117442669        5.9414141128       -7.3395335777
 H        -9.2574817737        0.6107153570       -5.2062362436
 H       -10.0272159846        1.8457941858       -4.1652581970
 H        -8.3298405135        1.3021725712       -2.3561752528
 H        -7.7586311566        0.0259181548       -3.3111848717
 H        -9.4658001594       -0.7295419300        1.1992479664
 H        -9.7076251863        0.5796856470        0.1037043108
 H        -7.1858317614        0.3008464556        1.8547637658
 H        -8.6190679991        1.3459885875        2.2511868721
 H        -9.1474406124        4.7349610893        2.0599772558
 H        -8.1531464601        6.0489078700        2.3863575093
 H        -7.8086994563        4.4429340133        3.1689711279
 H        -5.4334875581        3.3772359925        3.1537497805
 H        -5.6688094104        1.7149111137        2.7293220312
 H        -7.1316390879        2.6095164235        3.2360645206
 H        -4.3387969676        3.5015576148        1.2297633495
 H        -5.0115542198        3.8307799624       -0.4043187942
 H        -4.8217202499        2.2081031583        0.0437592294
 H       -10.9783289964       -2.5724749762       -1.4745033348
 H       -11.1081338528       -1.2469555787       -0.4642071742
 H       -10.1203450689       -2.6384111973        0.1111776181
 H        -8.4345403312       -3.4832444349       -1.8207174956
 H        -7.3775811211       -2.3467932305       -2.5624762623
 H        -9.1092572146       -2.6122141020       -3.1876076013
 H        -9.9752507150        1.9323086820       -7.2107278183
 H        -8.4687110753        1.0061845737       -7.2168782506
 H        -8.7258630066        2.1944702830       -8.4320216956
 H        -6.2186879082        3.4652696483       -5.8952814162
 H        -6.6835645786        4.1001021847       -7.4550134492
 H        -6.3459184514        2.4008616472       -7.2915726928
 H       -10.8659222918        8.4856531025       -3.5414258918
 H       -11.7551088224        7.6733633106       -2.3839581435
 H       -11.7197607524        7.0791724133       -3.9723865433
 H        -9.1919625490        8.2238836158       -1.7843354695
 H        -8.3514395128        6.6945377626       -1.4435829797
 H        -9.9617761891        7.1942209901       -0.6841159214
 H       -13.7178470479        2.9798217485        0.8637657782
 H       -15.4324844049        3.8266206285        0.5209780089
 H       -14.8667897764        3.3966589942        2.0645584430
 H       -15.7048226271        5.9215360439        1.0082036730
 H       -14.3912973361        7.1666533163        1.3468217195
 H       -15.0647233452        6.2814849036        2.6977877579
 H       -10.5300132053        7.0988122097        8.4067673738
 H       -10.4013218448        5.7757304981        9.5508185813
 H       -12.0033464873        6.1994055000        9.0400548257
 H        -9.4238032716        4.9941212457        5.7939301896
 H        -8.6797082717        5.2467911833        7.4328666698
 H        -9.1796087894        6.5686770823        6.5006467095
 Na       -7.4090284545        3.9911822808       -1.9497771012
