117

 C       -11.4820131012        3.7503442833        8.8991916060
 C       -10.7742716909        4.1483840222        7.5732001260
 O       -10.2594491277        3.2748768046        6.9078417923
 C       -10.8059252610        5.6781636488        7.1782717352
 C       -11.8638558933        5.9800649767        6.0401069921
 O       -12.9281064208        6.5253251778        6.3193713951
 C       -11.5433429212        5.3569072155        4.6793556676
 C       -12.6283818298        5.7460005299        3.6233636073
 C       -12.2710413215        5.2294845249        2.2378289130
 O       -11.2633683194        4.6035369954        1.9903399823
 C       -13.4521004796        5.2992228268        1.1354607555
 C       -12.7628050669        5.2909839101       -0.3505417960
 O       -12.0408078369        6.2188717021       -0.5606991479
 C       -12.9811252365        4.3149692507       -1.5489886033
 C       -12.2335653036        4.7892497613       -2.7827860960
 C       -10.7515792524        5.1061220668       -2.5438055551
 O       -10.0400018859        4.1402244395       -2.2532893104
 C       -10.0328225246        6.5234828214       -2.7077319695
 C        -8.8665599349        6.3014416071       -3.6773445588
 O        -7.8522401647        5.6659559382       -3.3091769881
 C        -8.8667877323        6.7209320887       -5.1842558093
 C        -8.2211596810        5.6052676540       -5.9804644153
 C        -9.1079785692        4.2877986871       -5.6918865538
 O       -10.2733699386        4.4365520843       -5.4100709751
 C        -8.4936622965        2.8429300707       -5.9977015616
 C        -8.0732105846        2.2416818511       -4.5649127977
 O        -7.0520321320        2.6838876604       -4.0367857790
 C        -9.0323409719        1.3166754734       -3.8869076679
 C        -8.3749388549        0.3313723490       -2.9463338260
 C        -9.5408063855       -0.4624910073       -2.2493148634
 O       -10.6738705303       -0.0959418698       -2.3559198127
 C        -9.1506807658       -1.6253891610       -1.2740687775
 C        -8.4576298497       -0.8518662718       -0.0135738094
 O        -7.2892014479       -1.0683483712        0.1998001624
 C        -9.3748331977       -0.0043021166        0.9493157144
 C        -8.7509857200        1.1899120278        1.6222466611
 C        -8.0090227973        2.1463716974        0.6644134385
 O        -8.2517248126        2.2489181458       -0.5087590628
 C        -6.7030028856        2.8925046546        1.2003071861
 C        -6.9441288137        4.4397788774        0.8662231216
 O        -6.6940485055        4.7961082671       -0.2681413790
 C        -7.6636445643        5.3979626244        1.8159269831
 C        -6.5642575716        2.7712651738        2.7341104258
 C        -5.4437364177        2.3772987319        0.4716909759
 C       -10.4084112545       -2.4302242059       -0.7800931745
 C        -8.0835661747       -2.5046640062       -1.8254496806
 C        -9.6551842222        2.0805025044       -6.5997460122
 C        -7.3491568976        2.9656831742       -6.9735556207
 C       -11.0206765444        7.6359174093       -3.0377211313
 C        -9.3490950322        6.9095209122       -1.3191038874
 C       -14.4281092414        4.0355149693        1.3573141638
 C       -14.3122789392        6.5878612429        1.2286577078
 C       -11.1593626233        6.5948969843        8.4480635325
 C        -9.3939207715        6.0222672119        6.6423760294
 H       -10.9126414573        4.3176656667        9.6375769933
 H       -11.3072366240        2.6481101725        9.0688686327
 H       -12.4957469446        4.0796983138        8.9112299171
 H       -11.4261069304        4.3450702196        4.8454424941
 H       -10.5175255366        5.6392053238        4.3625334630
 H       -12.7298362130        6.8113137002        3.6373805038
 H       -13.6119214340        5.2658100773        3.7641317079
 H       -14.0254269775        4.3615782835       -1.8336316644
 H       -12.7054290013        3.2472686825       -1.3089985949
 H       -12.6516982729        5.6465339591       -3.2639090937
 H       -12.2659776803        3.9554759317       -3.5084156213
 H        -8.2357774929        7.7104019303       -5.3081135266
 H        -9.8598310345        6.8557870577       -5.5685940685
 H        -7.1954241060        5.3663120726       -5.6951585049
 H        -8.1078142979        5.7695521067       -7.0385351748
 H        -9.6282095163        0.7152612321       -4.6463180148
 H        -9.7407450052        2.0121516769       -3.3339141667
 H        -7.8576205231        0.8804174117       -2.1634093627
 H        -7.6878358413       -0.3249406322       -3.4531867064
 H        -9.7704184243       -0.6591356411        1.6803208968
 H       -10.0611628942        0.4562519276        0.1933211727
 H        -7.9116077086        0.7604691789        2.1656867832
 H        -9.4743459946        1.6337456821        2.3206317923
 H        -7.9832284905        6.2413706126        1.3392993023
 H        -7.1341133685        5.6837130885        2.7697067058
 H        -8.6215274964        4.9941273883        2.1569982076
 H        -5.8194318083        3.3592783228        3.2093689676
 H        -6.4588708740        1.7821295235        3.0948620579
 H        -7.4128542674        3.1240159060        3.2082175001
 H        -4.4805204992        2.5647138696        0.9939837683
 H        -5.3784167746        2.8632984619       -0.4762006815
 H        -5.4887771942        1.2860334098        0.4959181125
 H       -10.6699363000       -3.0755637893       -1.5995478101
 H       -11.1785842854       -1.7403469860       -0.5047362698
 H       -10.1819602026       -3.1081399452        0.0326703868
 H        -8.0191105734       -3.2895883234       -1.1296972661
 H        -7.2134613138       -1.9308201604       -1.9006453544
 H        -8.2700213283       -2.8830893925       -2.8384443163
 H       -10.5772096266        1.9483467124       -5.9987871671
 H        -9.3945591777        1.0267402095       -6.9067262833
 H        -9.8752028659        2.6391593496       -7.5223645442
 H        -6.4386745411        3.3787011448       -6.5651294774
 H        -7.6183940896        3.5120307928       -7.8436496555
 H        -7.0914240457        1.9541209737       -7.2752271785
 H       -10.4291334688        8.5467855666       -3.0482966683
 H       -11.8047219579        7.7487484120       -2.3682613723
 H       -11.4782410183        7.5507108836       -4.0362992795
 H        -8.8886816246        7.8822940321       -1.3994016616
 H        -8.5420311033        6.1232741586       -1.1824174381
 H       -10.0803819294        6.7248528326       -0.5743968766
 H       -13.8478703750        3.2034844363        0.9005169201
 H       -15.2840704110        4.0562292762        0.7235977401
 H       -14.5757248665        3.9451281003        2.3871118380
 H       -15.1407906760        6.6400030114        0.5045777393
 H       -13.7411069917        7.4573764649        0.9940383048
 H       -14.8016801158        6.5075737004        2.2067659931
 H       -12.1615051221        6.6132178347        8.7580262422
 H       -10.7113126294        7.5491015605        8.1663916467
 H       -10.6646501315        6.2866692267        9.3497104660
 H        -9.0551966723        5.4578800440        5.8056588306
 H        -8.5220728919        5.9661035908        7.3106152446
 H        -9.5040598984        7.0292059731        6.2849535534
 Na       -7.6849082525        3.7348073982       -2.1278092720
