117

 C       -11.4617603057        3.8176194695        8.9346136979
 C       -10.7368499073        4.2018141361        7.6003509346
 O       -10.1618497045        3.3845050751        6.9022925044
 C       -10.7510826618        5.7491389793        7.1535960889
 C       -11.8620196344        5.9138111989        6.0637929927
 O       -12.9272794662        6.4475989887        6.2138905452
 C       -11.4998007350        5.3714599404        4.6589756972
 C       -12.5773604493        5.7012737684        3.6242511718
 C       -12.3423013989        5.1669081647        2.2106299411
 O       -11.3085131334        4.6222387919        1.8400664840
 C       -13.3427050709        5.3232236805        1.0053489589
 C       -12.7658988972        5.3910792334       -0.3833565146
 O       -12.0291901516        6.3354966906       -0.6886572986
 C       -13.0208212651        4.3441776982       -1.5139653649
 C       -12.3349471852        4.8580590414       -2.7985887772
 C       -10.7829702539        5.0482866773       -2.4888703661
 O       -10.1646821649        4.0388311983       -2.2065176431
 C        -9.9623178386        6.5145070239       -2.6519415191
 C        -8.8139421825        6.2762591203       -3.6350155832
 O        -7.8557815457        5.6276512228       -3.3408733627
 C        -8.7920409748        6.7648349360       -5.0946455136
 C        -8.3002987360        5.5542088454       -5.9781515409
 C        -9.1616934002        4.3190831643       -5.7812095239
 O       -10.2986464571        4.4607787538       -5.3394479188
 C        -8.5601763307        2.8900438671       -6.0050952636
 C        -8.0155034911        2.3137320672       -4.5402215610
 O        -6.9781925167        2.7432766353       -4.0992853289
 C        -8.9497534469        1.2982440141       -3.8583435053
 C        -8.4188596662        0.2937579063       -2.8199520701
 C        -9.6034871189       -0.4787350084       -2.1312391090
 O       -10.7723911847       -0.1384872651       -2.1685498195
 C        -9.0524559381       -1.6150575406       -1.2160150665
 C        -8.4590353944       -0.8547926902        0.0229220772
 O        -7.3269607492       -1.0272393991        0.3442071948
 C        -9.4583281081       -0.0143706932        0.8445354936
 C        -8.8424088727        1.1970234827        1.5205846253
 C        -7.9729954095        2.0868849563        0.6879049415
 O        -8.4367860987        2.1690634167       -0.4822580388
 C        -6.7784824368        2.9278945046        1.1937211765
 C        -6.9773562854        4.4653239234        0.8242301811
 O        -6.7278972484        4.8783688112       -0.3183072055
 C        -7.4741856184        5.3641246266        1.8349120785
 C        -6.7146850970        2.7284811203        2.7106887377
 C        -5.5132861332        2.2808226947        0.5412987074
 C       -10.2958969011       -2.3781759370       -0.6339492123
 C        -8.0347129079       -2.5580523317       -1.9565666821
 C        -9.7437339854        2.0233997409       -6.6078492232
 C        -7.3600296482        2.8613236373       -6.9193990474
 C       -10.9294399796        7.6729055784       -3.1012320476
 C        -9.2941475573        6.9243862604       -1.2230011667
 C       -14.2459760525        4.0174177090        1.2528951525
 C       -14.2428642668        6.6108688461        1.0327149335
 C       -11.1791706577        6.6063516809        8.3528275853
 C        -9.3077156597        6.0389885130        6.7766969858
 H       -11.0227333634        4.3999561337        9.6715220435
 H       -11.3764826351        2.7793759542        9.1007843434
 H       -12.5469109500        4.1333780369        8.8097773146
 H       -11.2149233599        4.2984574533        4.6682447684
 H       -10.5237641394        5.7825906301        4.4125163034
 H       -12.7233352748        6.7655099310        3.5986808747
 H       -13.4959348338        5.1552252823        3.8581031403
 H       -14.1160561069        4.3741706819       -1.7082352106
 H       -12.7011606185        3.3409178744       -1.2507961580
 H       -12.7113063373        5.8224128591       -3.2144682690
 H       -12.4297415267        4.1199922825       -3.6186428748
 H        -8.0677670324        7.5372067786       -5.2631859000
 H        -9.8230036124        7.0838958978       -5.3964344429
 H        -7.3027738273        5.2633139703       -5.7503223403
 H        -8.2062542885        5.7163811181       -7.0523943311
 H        -9.4096476906        0.6329466159       -4.6363910332
 H        -9.7372220930        1.9846045670       -3.5126701372
 H        -7.7946500061        0.7537204088       -2.0190670471
 H        -7.8395576468       -0.4388066974       -3.3760271174
 H        -9.7804849726       -0.6946775179        1.6507021038
 H       -10.2369559550        0.3619323561        0.1502842530
 H        -8.3477319470        0.8361359601        2.4639906881
 H        -9.6755492849        1.8439903263        1.7864877332
 H        -7.4004460596        6.4177325722        1.6130320507
 H        -6.9892328150        5.1663375506        2.7791411775
 H        -8.4918289378        5.2510850487        2.0050811597
 H        -5.9416540299        3.3453389838        3.1110868089
 H        -6.5266227925        1.7524413251        3.0460147991
 H        -7.5581895224        3.0364652533        3.2704102355
 H        -4.5995157891        2.3479355093        1.1187244104
 H        -5.3436233014        2.8280695033       -0.4149795917
 H        -5.6688975717        1.2447651813        0.4576578481
 H       -10.5902904904       -3.0934743461       -1.3821542953
 H       -11.0470446736       -1.6587763797       -0.3446395786
 H       -10.0300565798       -2.9757896737        0.2083926599
 H        -7.9018180748       -3.3917856981       -1.3054714632
 H        -7.1108608218       -2.1003723736       -2.2976454904
 H        -8.5494412370       -2.9219797400       -2.8516573131
 H       -10.5820877205        1.8160385581       -5.9326433253
 H        -9.3890756140        1.0119288411       -6.8494147467
 H       -10.1343097726        2.5060165259       -7.5258974596
 H        -6.4882022962        3.4843764615       -6.6518715742
 H        -7.6975891556        3.1461966056       -7.9572125872
 H        -6.9921336284        1.8879263438       -6.9751850668
 H       -10.4061709009        8.6089568491       -3.3667269880
 H       -11.7161128207        7.8845568510       -2.3117349971
 H       -11.5219630476        7.3911103852       -3.9979673901
 H        -8.8966229718        7.9305317453       -1.4279268730
 H        -8.4284911719        6.2589436987       -1.0468782016
 H       -10.0339701775        6.7840347275       -0.4382090411
 H       -13.5986961949        3.1225314164        1.2285795994
 H       -14.9200631971        3.8128987447        0.4453214374
 H       -14.7025382263        4.2522421530        2.1835181035
 H       -14.8525334657        6.6821725046        0.1699690058
 H       -13.6299665718        7.5115808518        0.9996633916
 H       -14.9562234200        6.4975257140        1.8333956505
 H       -11.9306850474        6.1876648908        8.9667240914
 H       -11.3755430845        7.5852257940        7.9840659296
 H       -10.3767572615        6.6823706942        9.0930882397
 H        -8.9055223710        5.4829688171        5.9402288352
 H        -8.6371058079        5.8257307847        7.5815090018
 H        -9.1947955947        7.0754898387        6.5476623726
 Na       -7.6843213501        3.6881877324       -2.1232363945
