117

 C       -11.4371452475        4.0337732610        8.7326816123
 C       -10.6308697947        4.3900075829        7.4728698594
 O        -9.9861285398        3.6462771900        6.7461833201
 C       -10.7625949383        5.8855639456        7.0526177189
 C       -11.7274665256        5.8744866146        5.8340712215
 O       -12.9146034742        6.0293138026        6.0103308230
 C       -11.2076922762        5.4175455727        4.4193155602
 C       -12.3806691577        5.5925578022        3.3992744378
 C       -12.0726833543        5.1532937772        1.9781043995
 O       -11.0281971090        4.7244044162        1.5582131019
 C       -13.3961409341        5.2900626480        1.0550627812
 C       -12.8445007505        5.7515261667       -0.3526030328
 O       -12.2884703481        6.8304842351       -0.5176009610
 C       -12.8271370880        4.6594344396       -1.4945919284
 C       -12.0454754361        5.0959886228       -2.7695395395
 C       -10.4997093764        5.1908290021       -2.5689469487
 O        -9.9474224781        4.1627383406       -2.2324433730
 C        -9.6988528720        6.5415207792       -2.7482927399
 C        -8.5463629419        6.1739153552       -3.8188122147
 O        -7.5534724975        5.6040940570       -3.5519951190
 C        -8.6636614629        6.5777120726       -5.3117772147
 C        -8.3403923745        5.3162908340       -6.1247971292
 C        -9.2223032425        4.1394772590       -5.7485683410
 O       -10.2597063623        4.3049239884       -5.1187987960
 C        -8.7689497433        2.6727860147       -6.0693727425
 C        -8.4447423937        2.1309224077       -4.6877682935
 O        -7.4806253418        2.6268234998       -4.1322542713
 C        -9.4303089356        1.2569836611       -3.8882493674
 C        -8.6670685095        0.1116885716       -3.1569765303
 C        -9.5150859056       -0.5533008544       -2.0961059531
 O       -10.6824120028       -0.1847635080       -1.9575439739
 C        -8.9919546390       -1.5691486329       -1.0362669352
 C        -8.5931770314       -0.7867166328        0.1983274183
 O        -7.4176256790       -0.6423746008        0.5421704189
 C        -9.7690120257       -0.0754661231        1.0333612094
 C        -9.1938357006        1.0759675175        1.9381929691
 C        -8.3382079617        2.1058081471        1.0130983754
 O        -8.7089539868        2.1724671780       -0.1571079141
 C        -6.9995545941        2.8342703727        1.3989851830
 C        -6.9724210617        4.3104254480        0.9965015101
 O        -6.9534964732        4.7146766035       -0.1458627606
 C        -6.9350172284        5.3612457338        2.0148354141
 C        -6.6886809703        2.6731845008        2.8474907729
 C        -5.8359756800        2.1084214710        0.6207148832
 C       -10.2217897779       -2.5496552893       -0.8465098767
 C        -7.7036964849       -2.2743375466       -1.4020366481
 C        -9.8327869582        1.9459068309       -6.8906837909
 C        -7.4824137952        2.6011326639       -6.9056451704
 C       -10.5441998532        7.7803549939       -3.1488143294
 C        -9.0784564586        6.8284734711       -1.4033282693
 C       -14.1600305056        3.9405858552        0.9294726769
 C       -14.3398522458        6.4119824698        1.6100000220
 C       -11.3286944646        6.8000953125        8.1503212142
 C        -9.3925999729        6.3941085035        6.5595670672
 H       -10.8882620857        4.5902662369        9.4702781983
 H       -11.5619775420        2.9965095665        8.9057505058
 H       -12.5060281535        4.4318389475        8.5915928734
 H       -10.6723860160        4.4710158926        4.3524440186
 H       -10.4034220069        6.0437309344        4.1268555525
 H       -12.6503190429        6.6239694802        3.3190896928
 H       -13.1916834016        4.9419647722        3.7270552739
 H       -13.8940549970        4.6533327156       -1.8436063436
 H       -12.4960236082        3.7557784480       -1.0253722752
 H       -12.4855091821        5.9756621775       -3.2889732376
 H       -12.1484930394        4.3654816304       -3.5643622801
 H        -7.8781518791        7.2980540461       -5.4738924828
 H        -9.7034940834        6.9381737170       -5.6676620448
 H        -7.3758030790        4.8928502516       -6.0271726455
 H        -8.4176063063        5.4905106916       -7.2040141623
 H       -10.2537079724        0.8566946453       -4.5716791863
 H        -9.9603142648        1.8888063323       -3.1231739161
 H        -7.7943511438        0.5965495093       -2.7022048361
 H        -8.3827700013       -0.6576060942       -3.8416081585
 H       -10.0752407949       -0.8037169188        1.8053591682
 H       -10.5869480333        0.2312197345        0.3957089627
 H        -8.5352627529        0.5686554760        2.6945176381
 H       -10.0040117477        1.4097158568        2.5517999357
 H        -6.3639309914        6.3040277697        1.6856065258
 H        -6.5631053271        5.1050972738        2.9489009845
 H        -7.9071278951        5.7146435048        2.2735330770
 H        -5.7833670042        3.1731934019        3.1005222917
 H        -6.4956974104        1.6641736477        3.1126951312
 H        -7.4608555475        2.9593030670        3.5408649369
 H        -4.8802487738        2.6296250202        0.7489773187
 H        -6.1378240576        1.9768709165       -0.4705355274
 H        -5.7906370176        1.1108361188        1.0286906730
 H       -10.4082680679       -2.9815736831       -1.8345116691
 H       -11.0600035370       -1.9116391770       -0.5478087777
 H       -10.0657409046       -3.3084213142       -0.1003737340
 H        -7.4149835594       -2.9365924912       -0.6096249597
 H        -6.9304161638       -1.5092468677       -1.3630382939
 H        -7.7123695390       -2.7700997194       -2.3396124783
 H       -10.7956340080        2.1365665797       -6.3933875256
 H        -9.6633606833        0.8688380525       -6.9943843680
 H       -10.0038307678        2.4251643874       -7.8842957374
 H        -6.6222826473        2.5761506614       -6.2640135521
 H        -7.3840717948        3.4333029483       -7.6230890680
 H        -7.4491516881        1.7450002997       -7.5064143682
 H        -9.9030969912        8.6106650145       -3.1554753299
 H       -11.3291393728        7.9267774217       -2.3795083272
 H       -10.9589883439        7.6974721478       -4.1064996501
 H        -8.2295940169        7.5243896280       -1.5277732588
 H        -8.7952306040        5.9399948030       -0.8999326068
 H        -9.9384326887        7.3124955941       -0.8983498254
 H       -13.6408561714        3.2188994895        0.3184965529
 H       -15.1928236189        4.1242303099        0.6349408037
 H       -14.2714544502        3.6046599942        1.9713672898
 H       -15.2857446351        6.3888171213        1.0918371946
 H       -13.7977633868        7.4029501258        1.6080871499
 H       -14.6394991044        6.2065709947        2.6606790072
 H       -12.4090943867        6.6410484029        8.3300792817
 H       -11.2852456697        7.8277214228        7.8312348067
 H       -10.8193842228        6.6690281829        9.1157064852
 H        -8.8875237656        5.6314989652        5.9257910446
 H        -8.7171088447        6.7755166898        7.3093645652
 H        -9.5120698948        7.2450680925        5.8796497385
 Na       -7.8119416201        3.5772471785       -1.9683457273
