117

 C       -11.2584119235        4.0281184451        8.4568625617
 C       -10.4296716964        4.6116770009        7.3633781836
 O        -9.7027451088        3.9002910745        6.6946040679
 C       -10.6101808631        6.0739961937        6.8934953797
 C       -11.6840907622        5.8982989523        5.7374376877
 O       -12.8799509623        5.8811271506        6.0421304478
 C       -11.2366471535        5.5050345432        4.3387136234
 C       -12.4421381609        5.7247269619        3.3528128843
 C       -12.1425827109        5.2091823970        1.9832228700
 O       -11.0743136993        4.7976962780        1.6541132642
 C       -13.4195452611        5.2459245881        0.9736475298
 C       -12.9889496724        5.8522974041       -0.3666561946
 O       -12.9419703438        7.0251734927       -0.6166895787
 C       -12.6742404676        4.8496819703       -1.5710307813
 C       -11.9001675967        5.6326738178       -2.6663456265
 C       -10.3240933975        5.5215681802       -2.6765332025
 O        -9.9286522337        4.3890405944       -2.3459073590
 C        -9.3581937283        6.6783904481       -2.8965070484
 C        -8.3473267937        6.0914209479       -3.8668655561
 O        -7.5808236947        5.2279269083       -3.5159117704
 C        -8.5087355692        6.3524534918       -5.3969708398
 C        -8.1696846641        5.0929259639       -6.1380147295
 C        -9.2785026305        4.0305662995       -6.0460642075
 O       -10.4058763098        4.2497373533       -5.6441151036
 C        -8.8371045287        2.4381251267       -6.2306373847
 C        -8.6681338016        1.8293077020       -4.7395691183
 O        -7.7067407526        2.1814817670       -4.0685822202
 C        -9.7526022635        0.9090434954       -4.1680166102
 C        -9.0507482864       -0.0540133442       -3.1901676466
 C        -9.7969975028       -0.5068554110       -1.9540259523
 O       -10.9194012749       -0.1210383273       -1.6838000442
 C        -8.9726403905       -1.4342389280       -0.8956237977
 C        -8.6691159519       -0.6493426912        0.3417740785
 O        -7.5166797195       -0.5067576714        0.7221817118
 C        -9.8688021058        0.1839637489        0.9742746014
 C        -9.3692869788        1.2304939711        1.8727586765
 C        -8.3012430741        2.1229879990        1.0732295103
 O        -8.7056648793        2.3891032243       -0.0343768353
 C        -6.9393409350        2.6373686447        1.6729261729
 C        -6.9509809483        4.1478260647        1.3403674178
 O        -6.9425636492        4.5928986566        0.2408109167
 C        -6.9203822182        5.1357461286        2.4874753986
 C        -6.7391792350        2.2779373436        3.1602092825
 C        -5.7999287763        1.9840512262        0.9233695313
 C        -9.8607698235       -2.6052089060       -0.3512984995
 C        -7.5773441162       -1.9050606894       -1.4394259550
 C       -10.0384888509        1.7987356488       -6.9335457296
 C        -7.5853635882        2.2697834932       -7.0361662123
 C       -10.0113752223        8.0133783681       -3.4364258076
 C        -8.8089958113        7.0031011115       -1.4889877730
 C       -13.9340292085        3.8125898311        0.7632579856
 C       -14.5484574660        6.1647620487        1.5533314466
 C       -11.3317327343        6.9192535750        8.0064648217
 C        -9.1622890826        6.6285612296        6.4486119834
 H       -10.8764034713        4.4287181437        9.4352318718
 H       -11.0037940189        2.9488739870        8.3925843920
 H       -12.3267456729        4.0912036644        8.2511703092
 H       -10.7159177652        4.5280230390        4.4033726388
 H       -10.4783718022        6.1815637528        4.0186435811
 H       -12.8323159391        6.7501813455        3.3113321452
 H       -13.2324503225        5.0494372722        3.7561045615
 H       -13.6957512455        4.6156838645       -1.9902815157
 H       -12.1558928679        3.9636326148       -1.2559110337
 H       -12.1566723982        6.6983047309       -2.7486086827
 H       -12.2708499593        5.2943315011       -3.6067457648
 H        -7.8290557185        7.0932328319       -5.8348689625
 H        -9.6181779515        6.6726641372       -5.5668184303
 H        -7.2654659516        4.6312803732       -5.7407576663
 H        -7.9868797162        5.2224655308       -7.2202617601
 H       -10.3782282264        0.3473776795       -4.9133999040
 H       -10.5227643138        1.5160380344       -3.6389242936
 H        -8.1908930288        0.3697561018       -2.6519028029
 H        -8.6779479442       -0.8753077307       -3.7494123216
 H       -10.5782086574       -0.5125768821        1.4476616931
 H       -10.4033807209        0.6472490114        0.1835517549
 H        -9.1409951123        0.7668379833        2.8546458554
 H       -10.1468963473        1.9060685181        2.1691578874
 H        -7.6133843414        6.0034759064        2.3112597012
 H        -5.9467131461        5.6596618767        2.4559406179
 H        -6.9537710069        4.8099853632        3.5554837739
 H        -5.9438668201        2.9488713320        3.5697944255
 H        -6.2732559979        1.2719919842        3.2778304051
 H        -7.6466500585        2.3424674468        3.8675433262
 H        -4.9211701218        2.4272243361        1.3293310521
 H        -5.9895815941        2.1210079265       -0.1560259660
 H        -5.8906060060        0.8985351372        0.9898012646
 H       -10.0318670177       -3.1591026912       -1.2665324598
 H       -10.8647761652       -2.3158946620       -0.0221791703
 H        -9.3099698357       -3.1189263472        0.4254614341
 H        -7.1556165709       -2.6600540831       -0.7346303232
 H        -6.7989770334       -1.1008927677       -1.4155555284
 H        -7.6354608734       -2.4070970072       -2.3793313279
 H       -10.9609109014        2.0524513198       -6.4599660733
 H        -9.9168516345        0.7704281344       -7.0892912096
 H       -10.0611152544        2.1515026099       -7.9585484239
 H        -6.8001886874        2.9270965327       -6.6972296291
 H        -7.7774229864        2.4186151936       -8.1137752501
 H        -7.2270240840        1.2479949002       -6.8922252520
 H        -9.1683575176        8.6249490737       -3.6813173277
 H       -10.5735960467        8.5119582911       -2.6288683679
 H       -10.5925937737        7.8563965406       -4.2971805267
 H        -8.3933550728        8.0028859178       -1.4795481313
 H        -8.1765904219        6.2499663811       -1.1682872328
 H        -9.7215579409        7.1394262671       -0.8946517110
 H       -13.1762450186        3.0780187025        0.8212605018
 H       -14.5683500851        3.8302053834       -0.1354948784
 H       -14.6903748800        3.5582530686        1.5406339761
 H       -15.3312057266        6.0820062997        0.8295996553
 H       -14.1967185530        7.2242691288        1.5148974108
 H       -14.7706395353        6.0592404240        2.6149748033
 H       -12.4024673850        6.6666019917        8.1547077276
 H       -11.4483307910        7.9526447473        7.7955314429
 H       -10.6949850230        6.9453253772        8.8844030640
 H        -8.5579200809        5.8463337174        5.9142390449
 H        -8.6429955145        6.8423726987        7.3731833558
 H        -9.1172214222        7.5632835225        5.8417025169
 Na       -7.8899839082        3.5424799481       -1.9165788849
