117

 C       -10.9218605146        3.9903488558        8.1483301429
 C       -10.0282418739        4.6797678877        7.0964063577
 O        -9.0276825994        4.2125530598        6.5862493044
 C       -10.4964737701        6.1224979669        6.6481685722
 C       -11.7663432620        5.9989101693        5.6325674105
 O       -12.8977031541        5.9733716548        6.0376280986
 C       -11.4786447435        6.1138850251        4.1781519216
 C       -12.8229986740        5.9966096109        3.3137666867
 C       -12.4699422468        5.4060508845        1.9615298769
 O       -11.3723245183        4.8493621824        1.8397898716
 C       -13.6156539545        5.1445539294        0.8932429730
 C       -13.1399222503        6.0007093000       -0.4069380941
 O       -13.1335677640        7.1900972690       -0.3126047222
 C       -12.6554296301        5.3437573608       -1.7624671509
 C       -11.6113059049        6.1485294578       -2.4612653693
 C       -10.1987828881        5.5932953387       -2.4226249363
 O        -9.9011369551        4.5235242107       -1.9698081458
 C        -9.0839255747        6.6137090626       -3.0295276058
 C        -8.0699299562        5.8576820572       -3.9264436743
 O        -7.1924388399        5.1535689503       -3.4460691394
 C        -8.1805967219        5.9931418619       -5.5307351815
 C        -7.8358326653        4.6275277503       -6.1241161840
 C        -9.1656042396        3.7391374643       -6.1822145901
 O       -10.2351903409        4.3065268458       -6.2352293697
 C        -9.1012924639        2.2184908853       -6.1654346718
 C        -8.8701297295        1.8693151810       -4.6093645636
 O        -8.2638545179        2.6905803644       -3.9216777834
 C        -9.6624747386        0.6849710667       -3.9955433908
 C        -8.9138594815       -0.0121378981       -2.9183951758
 C        -9.8835200084       -0.6816651289       -1.8820000878
 O       -11.0684507315       -0.4283858738       -1.7708135550
 C        -9.1738874506       -1.5521696850       -0.7629376146
 C        -8.9024667751       -0.6053574290        0.4961440850
 O        -7.7716889783       -0.4832292748        0.9189542730
 C       -10.0678687591        0.2792739828        1.1421340335
 C        -9.4127028575        1.4849761766        1.8734705281
 C        -8.2673236516        2.0715605537        1.0061079614
 O        -8.4141744168        2.1577620543       -0.2255065052
 C        -6.9828037971        2.5756403317        1.6806293770
 C        -7.0258424790        4.1950557839        1.5176673122
 O        -7.0287235726        4.7394889019        0.4011299555
 C        -6.9388219394        5.0328847054        2.7889732329
 C        -6.8032399037        2.2506532959        3.1837767169
 C        -5.7485097923        2.1329117926        0.8496411170
 C       -10.2178450429       -2.6138396768       -0.2980532979
 C        -7.8903892635       -2.3116259616       -1.1375257518
 C       -10.3747594861        1.5957320291       -6.6510362077
 C        -7.8584550094        1.5967045756       -6.9333077368
 C        -9.6609026974        7.7540306580       -3.8702447385
 C        -8.3519057146        7.1228496737       -1.7642996051
 C       -13.8012255199        3.6449095923        0.5307142834
 C       -14.9578484869        5.7450617549        1.3289295577
 C       -10.9804915644        6.8978769459        7.8892529487
 C        -9.1930121015        6.7386951397        6.0421794853
 H       -10.6324436451        4.4117158330        9.1424011838
 H       -10.6398203751        2.9166544764        8.1321560793
 H       -11.9737200139        4.2634339993        7.9333768891
 H       -10.9352674877        5.1907919510        3.9579194339
 H       -10.9642265003        6.9938519007        3.8753678380
 H       -13.3185243595        7.0043996572        3.1645965015
 H       -13.6610630220        5.4335424034        3.6692387017
 H       -13.5979937691        5.3486311467       -2.3258674807
 H       -12.4570941072        4.2923414804       -1.5135147917
 H       -11.5385871940        7.1192100291       -1.9923291787
 H       -11.8655398807        6.4073346810       -3.4974264318
 H        -7.5468391472        6.9188647574       -5.8598958494
 H        -9.1654275657        6.2232549331       -5.9227449394
 H        -7.1723977578        4.0207530564       -5.4662707861
 H        -7.4976017188        4.6855807261       -7.1426859521
 H        -9.8916023778        0.0374580616       -4.8396908359
 H       -10.6560291605        1.1555439314       -3.6975569354
 H        -8.1140029185        0.5985428459       -2.5801313661
 H        -8.3824794951       -0.8875947347       -3.3022957681
 H       -10.6633465451       -0.2513797921        1.8989420294
 H       -10.8257441544        0.5103587630        0.4222939818
 H        -9.0180322738        1.0598098504        2.7610150224
 H       -10.2721657777        2.1404690034        2.1917077227
 H        -7.6363108833        4.7203364329        3.5863886669
 H        -7.3111352833        6.0991269463        2.5997726331
 H        -5.9106121155        5.1234308527        3.2365642503
 H        -5.9830931725        2.9059662477        3.5949039000
 H        -6.5451727021        1.1495824032        3.2647086356
 H        -7.6834289604        2.5402073434        3.7835330695
 H        -4.7972297915        2.4115864896        1.3462149816
 H        -5.8284674296        2.6972892085       -0.0468165656
 H        -5.8222176072        1.0382821747        0.6793611769
 H       -10.4420115186       -3.3298135583       -1.1010666237
 H       -11.1116154955       -2.0605500888       -0.0032261829
 H        -9.8084231258       -3.1963726212        0.5621251370
 H        -7.6608664126       -3.0189553163       -0.3229067092
 H        -7.1017862397       -1.5868329240       -1.3353698567
 H        -7.8778369586       -2.8977565373       -2.0938128299
 H       -11.1765623746        2.0883403678       -6.1320742272
 H       -10.4514259443        0.5550485942       -6.3781635349
 H       -10.4875703289        1.7469740647       -7.6987531216
 H        -6.9480385691        2.0112519353       -6.4897483134
 H        -7.8471921989        1.8602447732       -7.9675262126
 H        -7.8774169571        0.4853911207       -6.7437479775
 H        -8.7912231196        8.2213918280       -4.3509473720
 H       -10.1286427795        8.4108320548       -3.1960924724
 H       -10.3580197523        7.3856120838       -4.6390782203
 H        -7.4886187076        7.7024452647       -2.0150168097
 H        -8.0556481699        6.2138926556       -1.1725860401
 H        -9.0138813258        7.7213094626       -1.1712621537
 H       -12.8069697697        3.1665897475        0.6537748317
 H       -14.1510212653        3.3646322108       -0.4627439509
 H       -14.4463224308        3.1980342121        1.3057640563
 H       -15.8077108645        5.6930493002        0.5750452422
 H       -14.8408663002        6.8018883407        1.5647883554
 H       -15.1987903169        5.1600394996        2.2284337778
 H       -12.0050016691        6.5934891462        8.0898996849
 H       -10.8661919316        7.9998169584        7.7272065944
 H       -10.3952666421        6.7116858111        8.8098344943
 H        -8.9276810384        6.1739524392        5.1583478851
 H        -8.3531566711        6.5980844549        6.7472165908
 H        -9.3265371151        7.7989135029        5.7943330479
 Na       -7.7406530918        3.7590989491       -1.7016261107
