117

 C        -8.9682345161        4.3070817160        6.7185635085
 C        -9.5179224432        5.1109177646        5.5643657337
 O        -9.3290054024        4.7778532224        4.4201786580
 C       -10.3101734869        6.4578237534        5.8976717849
 C       -11.7300729715        6.3315093397        5.1968696428
 O       -12.7530063923        6.7672499373        5.6967224930
 C       -11.8040575226        5.5291410165        3.7353356605
 C       -13.1160598944        5.9235100156        2.9775525390
 C       -13.1386770297        5.2198699124        1.5321585393
 O       -12.3549183173        4.3316134064        1.2463323348
 C       -14.1158646066        5.8644035968        0.4414989923
 C       -13.0763833573        6.4709082655       -0.5805840365
 O       -12.6905596533        7.6167698066       -0.5339105026
 C       -12.2622948166        5.5616362368       -1.4924943779
 C       -11.4493746293        6.3539963787       -2.5659021562
 C        -9.8950076620        5.9476769643       -2.4031147556
 O        -9.5208410391        5.0842353606       -1.6739933223
 C        -8.8267282988        6.8386356416       -3.2162058942
 C        -7.8572389065        5.7752249084       -4.0026249368
 O        -6.9675612455        5.1841904029       -3.4810432236
 C        -8.0700181272        5.6143134326       -5.6162961240
 C        -8.0501242638        4.1523636699       -6.0048605032
 C        -8.8233280621        3.2824600726       -5.0388858122
 O        -9.3926586924        3.8386069253       -4.1067983565
 C        -8.9279574838        1.7068965085       -5.2377619771
 C        -8.8251754885        1.0201951626       -3.8362053196
 O        -7.7696926557        1.2145006000       -3.1966215926
 C        -9.8638320307        0.0481716565       -3.3212923125
 C        -9.5570601432       -0.3118651551       -1.8656872548
 C       -10.4896079808       -1.3769078370       -1.2438469223
 O       -11.1750637697       -2.0010156083       -2.0299315590
 C       -10.4265601113       -1.6614576867        0.3392522757
 C        -9.5080311751       -0.6208205147        1.0336818696
 O        -8.3069345251       -0.8549657803        1.0901893700
 C       -10.0807135919        0.7276820788        1.6824446031
 C        -8.8901281533        1.5186136054        2.2878627824
 C        -8.1438143366        2.3737549735        1.2454612350
 O        -8.4607364364        2.4067417245        0.0533530149
 C        -6.6434901335        2.8817126296        1.6000992552
 C        -6.2820536243        4.0948095331        0.7169963352
 O        -6.1980230671        3.9115981967       -0.4786356563
 C        -6.1161954107        5.4164207794        1.4521122003
 C        -6.5228392746        3.1674414924        3.1506735533
 C        -5.6488366079        1.6993337836        1.2432384302
 C       -11.9431920083       -1.6575094569        0.6582056055
 C        -9.8458960029       -3.0180895460        0.5830040722
 C       -10.3467068692        1.5859105413       -5.8852675989
 C        -7.8090214375        1.0172748871       -6.0771584579
 C        -9.3557211453        7.9527231757       -4.0565782693
 C        -7.9349103084        7.3412402688       -2.0829722818
 C       -14.9029477359        4.7066836527       -0.1844584939
 C       -15.0148943982        6.9585152830        1.0154107570
 C       -10.4551523718        6.6997662606        7.4249158666
 C        -9.4233000068        7.5548793652        5.1251987303
 H        -8.8561980620        4.9329865475        7.6752318505
 H        -8.0564050436        3.7908654606        6.3424344175
 H        -9.5968985105        3.4672818649        6.9627114818
 H       -11.7252233739        4.4414491689        3.8642050857
 H       -10.9329259751        5.7455448202        3.1033916490
 H       -13.3114139288        7.0130046263        2.8043331786
 H       -13.8543523457        5.4478309590        3.5952150395
 H       -12.7182072908        4.7416955735       -1.9913011289
 H       -11.5067869047        5.1302445895       -0.7991067166
 H       -11.5756618891        7.4271502467       -2.6519707341
 H       -11.7714241086        6.0225464453       -3.5806944431
 H        -7.3588710919        6.1496975173       -6.1199561976
 H        -9.1140659142        5.9419427025       -5.8885392034
 H        -7.0346644149        3.7786345638       -6.0043671865
 H        -8.3335431410        3.9525961542       -7.0580227184
 H        -9.8905863393       -0.8144249964       -3.9939099548
 H       -10.9246671737        0.4097466076       -3.3419039607
 H        -9.6326506948        0.5537259410       -1.2365764856
 H        -8.5107677281       -0.6751196801       -1.6990224231
 H       -10.7869876328        0.5846274782        2.4696533090
 H       -10.6144825225        1.3729971302        0.9669153124
 H        -8.1057444711        0.8737391853        2.7343546667
 H        -9.1929994744        2.1025270011        3.1586185907
 H        -7.1545213651        5.6929450138        1.7528018665
 H        -5.8135788751        6.2604683870        0.7569080980
 H        -5.4810483001        5.4317078869        2.4070840699
 H        -5.5646687601        3.5043971860        3.4396143337
 H        -6.7709967887        2.3645397875        3.7927332390
 H        -7.2104057563        3.9754916643        3.4333185411
 H        -4.6312216900        1.9377822254        1.4837355599
 H        -5.7113804123        1.5008878917        0.1609469372
 H        -5.9162369854        0.8363607978        1.8649623832
 H       -12.4733088673       -2.3222353638       -0.0184861379
 H       -12.4283751031       -0.6865028724        0.6696579287
 H       -12.1340700026       -2.1867234008        1.5830031765
 H        -9.5684461745       -3.2081863131        1.6218868206
 H        -8.8878557064       -3.1089183622        0.0388377816
 H       -10.4336176579       -3.7651088349        0.1629361002
 H       -11.1106850522        2.1939343544       -5.3583522414
 H       -10.7491017381        0.5697658865       -5.7697370971
 H       -10.3334528466        1.8867650496       -6.9729601679
 H        -6.8538907013        1.2159966199       -5.5885171483
 H        -7.6654060992        1.4248128887       -7.1136263325
 H        -7.9025847398       -0.0310958085       -6.3140803559
 H        -8.5798178410        8.7191492335       -4.3673549736
 H       -10.0529687280        8.5955429082       -3.4590794154
 H        -9.8097481559        7.7281773521       -5.0501746552
 H        -7.0021568044        7.7471292726       -2.5166808529
 H        -7.6344741274        6.6292240125       -1.3427800058
 H        -8.3937963601        8.1213632982       -1.4215390472
 H       -14.3656950585        3.7655378965       -0.2342423099
 H       -15.2388409844        4.8746281587       -1.2144152992
 H       -15.7361007066        4.4746107964        0.4540566384
 H       -15.5251492829        7.4331565619        0.2014936853
 H       -14.4570094506        7.7089196790        1.5773225442
 H       -15.8907695248        6.6287800019        1.5469040310
 H       -10.9343555779        5.8069920763        7.9112378976
 H       -10.9334846595        7.6234420576        7.6816976433
 H        -9.4680243656        6.6679579515        7.8720266034
 H        -9.3488627862        7.2322034037        4.0965415017
 H        -8.4891599322        7.6583730366        5.6414766354
 H       -10.0129110402        8.4475526820        5.1872847070
 Na       -7.8945766596        3.5315775008       -1.9236191656
