117

 C        -9.0118272618        4.2691630550        6.7996700040
 C        -9.5231541238        5.0309372377        5.5812521602
 O        -9.2374925110        4.6751381572        4.4572754667
 C       -10.3276821761        6.3482015992        5.9148587081
 C       -11.6690924824        6.3751860189        5.1070371427
 O       -12.7391318038        6.7665126744        5.5667089838
 C       -11.6193978929        6.0105112760        3.6038971516
 C       -13.0227802949        6.1913605399        2.9654704114
 C       -13.1185157130        5.2048976899        1.7436606371
 O       -12.3902068639        4.2274106891        1.7392963258
 C       -14.1076750461        5.5680974085        0.4662435114
 C       -13.0814483793        6.4355601237       -0.3821991440
 O       -12.8069361521        7.5847922377       -0.0931209728
 C       -12.2279939760        5.7185203814       -1.6015773666
 C       -11.1949972794        6.7097203175       -2.1210200966
 C        -9.8189867339        6.0711928119       -2.2957758608
 O        -9.5647945345        5.0918310211       -1.6881666945
 C        -8.7109305991        6.8214622195       -3.2428215093
 C        -7.8149548355        5.7226565827       -3.9673019251
 O        -7.0437775712        5.0433300749       -3.3579351115
 C        -7.8150917703        5.6148334267       -5.4830325987
 C        -7.7075204691        4.1571427831       -5.8277555535
 C        -8.7959777125        3.3725060906       -5.2008820047
 O        -9.5850987497        3.8910843091       -4.4315105398
 C        -8.9520651372        1.8044071508       -5.4357460349
 C        -8.9015321945        1.1576352278       -4.0008987811
 O        -8.1504022623        1.6424832502       -3.1432200002
 C        -9.8376345829        0.0719755327       -3.4658537406
 C        -9.5394362905       -0.2654938130       -1.9789644383
 C       -10.4267042844       -1.4250665701       -1.3766373754
 O       -11.1181180501       -2.1205230683       -2.0764935284
 C       -10.3325307877       -1.7553506151        0.1883708884
 C        -9.3052375196       -0.7279427295        0.8169445826
 O        -8.0868043315       -0.6997647642        0.7128949446
 C        -9.9490767006        0.4694567798        1.5991995479
 C        -8.9121151382        1.4254174796        2.2264183040
 C        -8.1680329018        2.2828107662        1.2033850516
 O        -8.6240119534        2.3919479315        0.0600450721
 C        -6.8066391514        2.9342328479        1.6953374807
 C        -6.5372392923        4.1514602286        0.8756963919
 O        -6.4389663548        4.1370765157       -0.3519738820
 C        -6.5214691797        5.5089637986        1.5323614107
 C        -6.7976948076        3.0525190238        3.2475850916
 C        -5.6124810033        1.9033314048        1.4087389016
 C       -11.6907045545       -1.6425388402        0.8287271249
 C        -9.8053778518       -3.2295747279        0.1863778788
 C       -10.3807723813        1.6023303587       -5.9138623660
 C        -7.8611166104        1.2542146196       -6.3973160885
 C        -9.4426869874        7.8023039750       -4.1884223878
 C        -7.8568437672        7.6916580846       -2.2746774114
 C       -14.4279960952        4.1929301247       -0.1512151072
 C       -15.2943802900        6.4869102533        0.9444082294
 C       -10.5520663327        6.5222954026        7.3998399879
 C        -9.4769300306        7.5115148768        5.3421821195
 H        -8.2002971172        4.8038391814        7.3321201000
 H        -8.7249623297        3.3006510353        6.5566067126
 H        -9.8326387655        4.1728931884        7.4775869599
 H       -11.3003604462        4.9928353251        3.6402559447
 H       -10.7993559752        6.4262678536        2.9567242702
 H       -13.1595678253        7.1965907939        2.6721412756
 H       -13.7271562688        5.8868111858        3.7440157623
 H       -12.8650100798        5.4229415154       -2.4247858106
 H       -11.6646936879        4.8259057321       -1.2098406419
 H       -11.1570741172        7.5918061440       -1.4518643742
 H       -11.4237953914        7.1939186058       -3.0787606943
 H        -6.9420321366        6.1254553998       -5.8091006955
 H        -8.7434633257        6.0592442396       -5.9232702198
 H        -6.7388466791        3.7796768980       -5.5313244105
 H        -7.6523285655        3.9403508430       -6.9282271412
 H        -9.9352320973       -0.8365675316       -4.0399386630
 H       -10.8370649621        0.5391058198       -3.5254467718
 H        -9.7651666983        0.6472544492       -1.3511364595
 H        -8.4778945309       -0.5920328689       -1.8445763148
 H       -10.6127248240        0.1634733691        2.3978415235
 H       -10.5783729498        1.1105558198        0.9237052736
 H        -8.1527425964        0.8446159234        2.8410967300
 H        -9.3980807240        2.1017265346        2.8941353307
 H        -7.0844318754        5.6425591868        2.4357490381
 H        -6.6394059008        6.2909572035        0.8672696188
 H        -5.5153341971        5.6108080857        1.8274078802
 H        -5.9066018364        3.6561718564        3.5075164620
 H        -6.5754939289        2.0587625332        3.7319231000
 H        -7.7077510175        3.5335079791        3.7123947494
 H        -4.7182891445        2.3326248434        1.8662435501
 H        -5.3771255825        1.7215311506        0.3601616117
 H        -5.9254512652        0.9394311156        1.9001766970
 H       -12.1985033023       -2.5792848608        0.6472037090
 H       -12.2145595184       -0.8434269563        0.2955488674
 H       -11.7982388005       -1.5906882459        1.9048777757
 H        -9.7931683835       -3.5843082225        1.2526146927
 H        -8.7358046538       -3.2948592719       -0.0755922508
 H       -10.3212302473       -3.9632342379       -0.4172915146
 H       -11.1299002240        2.0064387902       -5.2803669007
 H       -10.6699558772        0.6116031656       -6.1081644139
 H       -10.3966599266        2.2240426786       -6.7893860086
 H        -6.8804171809        1.4040256516       -5.9794722285
 H        -7.7859018845        1.7595383148       -7.3491650634
 H        -7.9772522678        0.1538176371       -6.5823844812
 H        -8.9279264416        8.2225251149       -5.0266000877
 H        -9.8105287996        8.6206645771       -3.6844454240
 H       -10.2688267647        7.3012133745       -4.6261811608
 H        -7.5117568716        8.6636641877       -2.5352940215
 H        -7.0125738975        7.0934784518       -1.9545961032
 H        -8.3671568362        7.8406693123       -1.3117134215
 H       -13.5748140376        3.6235004260       -0.4494003104
 H       -15.0385340578        4.1382562038       -1.0558760946
 H       -14.9387803169        3.5936650101        0.6543579786
 H       -16.1708194748        6.5337180109        0.2303544504
 H       -14.9824807906        7.5632071874        0.8667106691
 H       -15.6715286114        6.3278413900        1.9694463961
 H       -11.1441854651        5.6848982459        7.8756381903
 H       -11.0739572627        7.4326716843        7.5555563778
 H        -9.5988215281        6.6711659637        7.8884845425
 H        -9.2298513202        7.2116562279        4.2950650696
 H        -8.5933281693        7.5730119986        5.9511579730
 H       -10.0926766830        8.4131569870        5.4067896900
 Na       -7.9088582798        3.3466883565       -1.9205647130
