117

 C        -9.3534927273        4.2955516405        6.7332389552
 C        -9.2921748905        5.0315708274        5.3948428591
 O        -8.5899691876        4.6664668631        4.4654495738
 C       -10.2429298505        6.3815222266        5.1854612060
 C       -11.6789734237        5.7900327921        4.8730873726
 O       -12.2625508768        5.2771852748        5.7766778806
 C       -12.0511083906        5.3122034537        3.4008064725
 C       -12.4747619988        6.4572278384        2.4273806526
 C       -13.2482278083        5.8609821005        1.2810975541
 O       -13.3007796078        4.6893052321        1.0212697220
 C       -13.8773982251        6.8024408758        0.1917857229
 C       -12.8789359210        6.8194916163       -1.0404161019
 O       -12.1788242105        7.7874022130       -1.2379485728
 C       -12.6546143046        5.4586889101       -1.8748640111
 C       -11.5867471440        5.7006775692       -2.9327746237
 C       -10.1291376851        5.7204989133       -2.4958005663
 O        -9.8046844117        5.0231750987       -1.5445102159
 C        -8.9115290582        6.4235709513       -3.2964022103
 C        -8.3619179715        5.2526703943       -4.2806019426
 O        -7.4897258543        4.4599885284       -3.9122120178
 C        -9.0531921616        5.0483422049       -5.5810089493
 C        -9.1110745480        3.4938139577       -5.9474946445
 C        -9.1574281656        2.5776458873       -4.6953974259
 O        -9.7485188145        2.9060630449       -3.7300879431
 C        -8.5304269627        1.1643159099       -4.8327355630
 C        -8.5822413464        0.6012000627       -3.3150282733
 O        -8.1049696597        1.3164276282       -2.4742384175
 C        -9.3241418067       -0.6556218394       -2.9671966397
 C        -9.1615509492       -0.9295491705       -1.4760748245
 C       -10.4941379410       -0.5936419087       -0.8131145307
 O       -11.4217903560       -0.0975233730       -1.3860568180
 C       -10.6368666498       -0.8989579838        0.8014567972
 C        -9.5868362687        0.0054435261        1.6135458789
 O        -8.3846938295       -0.2658108739        1.6159727752
 C       -10.2186238622        1.3281822605        2.1707745679
 C        -9.0842412278        2.3464807708        2.4045188389
 C        -8.1312397709        2.5119214281        1.1537221019
 O        -8.6178115642        2.5837546599        0.0695935418
 C        -6.6057095187        2.5364326010        1.3666987379
 C        -5.9891501420        3.9359818388        0.9963516613
 O        -6.2547920578        4.4473422887       -0.0447678329
 C        -4.9541079336        4.6308370923        1.8646588210
 C        -6.1108773176        2.1671332606        2.6871801394
 C        -6.0588362777        1.4196124081        0.2880059594
 C       -12.0957244085       -0.6297862126        1.1007504479
 C       -10.2316445023       -2.3788466360        1.1256987682
 C        -9.4689677366        0.4615343221       -5.8460695969
 C        -7.0485035926        1.1531334249       -5.2296783755
 C        -9.3831434229        7.7161080453       -3.9600348592
 C        -7.8305235969        6.8336645529       -2.2538985239
 C       -15.1991800867        6.2606509766       -0.3761778491
 C       -14.1222549974        8.2864669981        0.6392378826
 C       -10.3987629572        7.1319508475        6.5248906957
 C        -9.6036602959        7.1832559914        4.0658034312
 H        -8.4776252537        4.3470645217        7.2354986387
 H        -9.3620225425        3.2318924230        6.4742496260
 H       -10.1712371299        4.5910320434        7.3559791241
 H       -12.8303514709        4.5676361915        3.4487192919
 H       -11.0651983981        4.8460949087        3.2766601019
 H       -11.6114152741        7.1039540131        2.2136629815
 H       -13.2500535200        7.0968696905        2.9291027794
 H       -13.5819612235        5.0984929000       -2.3174431181
 H       -12.3453768715        4.6339283765       -1.1573754013
 H       -11.8346854417        6.5951115314       -3.5204545349
 H       -11.6493097824        4.8464600686       -3.6391702126
 H        -8.7413831878        5.5686697685       -6.5370630787
 H       -10.0781373570        5.4255465675       -5.5154006213
 H        -8.2754582465        3.1916577077       -6.5802842140
 H       -10.0409414272        3.4074477455       -6.5329731814
 H        -8.8171177375       -1.4059459131       -3.5429309663
 H       -10.4159478715       -0.6330764649       -3.1840695207
 H        -8.3260161324       -0.3555191581       -1.0513421047
 H        -8.9627276690       -2.0051302072       -1.2613497364
 H       -10.6502270103        0.9871561457        3.1101511295
 H       -10.9990515627        1.7545052214        1.4843817628
 H        -8.5575534394        1.9953085636        3.3475358557
 H        -9.4868510538        3.3081716934        2.6099994598
 H        -5.4526131134        5.2103089486        2.5933230013
 H        -4.5325833122        5.3616944623        1.2040115448
 H        -4.1985788197        4.0601501400        2.3266732306
 H        -4.9928375489        2.0013383657        2.6480246605
 H        -6.5937238407        1.2155857793        3.0863191832
 H        -6.3011092279        2.8726659200        3.4893018622
 H        -4.9831594632        1.5090823664        0.2842639248
 H        -6.3959710175        1.6113329726       -0.6876538805
 H        -6.4255036673        0.4004569423        0.4985586511
 H       -12.6957256665       -1.4460949916        0.7290880076
 H       -12.4332754528        0.3276664301        0.6774233610
 H       -12.2704138251       -0.6832284427        2.1870769036
 H       -10.8400535883       -2.6148527430        2.0345259532
 H        -9.1897250489       -2.4557112802        1.3861895715
 H       -10.5292350721       -3.0927013681        0.2696233014
 H       -10.5265942720        0.7454565973       -5.8461939317
 H        -9.4134004854       -0.5366060182       -5.3865384168
 H        -9.1650223466        0.4180665646       -6.9177513150
 H        -6.4598028841        1.7534761538       -4.5178278782
 H        -6.8078953463        1.5938343001       -6.1804784290
 H        -6.6366263335        0.0885047772       -5.1184047675
 H        -8.5382258839        8.3723922554       -4.2081017064
 H        -9.9886035849        8.2482961178       -3.2379866352
 H        -9.9319919261        7.4425956795       -4.8763186822
 H        -6.8088565017        6.8220000767       -2.5366259109
 H        -7.8485232045        6.0963962704       -1.4021111654
 H        -7.9328193068        7.8459346586       -1.9253110042
 H       -15.1685480477        5.2507879289       -0.7081231983
 H       -15.3302516252        6.9050569793       -1.2296952346
 H       -16.0581475826        6.4740681145        0.3164828333
 H       -14.1351369635        8.9788975314       -0.2606193673
 H       -13.2232692915        8.6148077221        1.1772141169
 H       -14.9780637434        8.2700973875        1.2975396822
 H       -11.3146474259        6.8043156835        7.0555145323
 H       -10.4948551202        8.2092947020        6.3688849336
 H        -9.5288209818        7.0791721007        7.2095679130
 H        -9.3158120956        6.4818599616        3.2821351096
 H        -8.6948051228        7.5382435648        4.4457062448
 H       -10.2176092985        8.0037757838        3.7090325357
 Na       -7.7656225610        3.5377381743       -1.8247618827
