117

 C        -9.5121499669        4.4822186371        6.5851480245
 C        -9.1701963941        5.0621228672        5.2184303636
 O        -8.2440390552        4.6382598899        4.5432811000
 C        -9.9708553411        6.2591355489        4.7299447834
 C       -11.3943235943        5.5530548322        4.4869837993
 O       -11.9966349241        5.3196492025        5.5008851127
 C       -11.8598359797        5.2800068023        3.0558906101
 C       -12.9989909770        6.2207894321        2.6119377645
 C       -13.4982442025        5.9459085327        1.1782551792
 O       -13.7714941912        4.8555102944        0.7907276753
 C       -13.6042688913        7.1767888676        0.2129017925
 C       -12.4449125031        6.9447781502       -0.8233451114
 O       -11.4229228641        7.5869074123       -0.7256796349
 C       -12.6574427215        5.8024668188       -1.8411943208
 C       -11.8718535376        6.1012419280       -3.1315217268
 C       -10.3717136045        5.8078757065       -2.9565117292
 O       -10.0093241339        4.9939119314       -2.0987151771
 C        -9.1693237187        6.4325505914       -3.8487276369
 C        -8.5044911489        5.1234944014       -4.4010934082
 O        -7.6547485424        4.4860630083       -3.7762101317
 C        -9.0955788128        4.5995980869       -5.7030659806
 C        -8.7785542220        3.0789477999       -5.8966131303
 C        -8.9732184058        2.2573721099       -4.6332231492
 O        -9.8094862177        2.5208871893       -3.8324677045
 C        -8.2499919716        0.7857213562       -4.4116121919
 C        -8.8044172754        0.3442943823       -2.9838362638
 O        -8.6211558179        1.0413998021       -2.0124058842
 C        -9.6483515481       -0.9164110083       -2.8372062581
 C        -9.6721285272       -1.3194583004       -1.3838660155
 C       -10.5535743042       -0.3737700406       -0.5761033811
 O       -11.0817404313        0.5873651030       -1.1370630699
 C       -10.8012909137       -0.5993091653        0.9721917413
 C        -9.7527382867        0.2034949899        1.7582909484
 O        -8.5911354870       -0.1842815628        1.7199496777
 C       -10.0708661321        1.4869013059        2.5747894520
 C        -8.7223260007        2.1659448436        2.8884033814
 C        -7.9905317439        2.4955521976        1.5697073729
 O        -8.6873283129        2.9124199667        0.6546541866
 C        -6.4479162277        2.3710903076        1.3167950738
 C        -6.0778750516        3.8956735161        0.9942128869
 O        -6.4859968023        4.3318935229       -0.0503167320
 C        -5.3473024309        4.7070590328        2.0292847085
 C        -5.6734636350        1.8299983070        2.4654341288
 C        -6.1707519425        1.5111610530        0.0358516703
 C       -12.3278155495       -0.2608062134        1.2062927074
 C       -10.5816566847       -2.1102937046        1.3498637732
 C        -8.5472515307       -0.1317429576       -5.6277183412
 C        -6.7157525037        1.0370695545       -4.2741881595
 C        -9.6417471590        7.3490972136       -4.9308303259
 C        -8.1689610586        7.1309476746       -2.8906013915
 C       -14.9930331949        7.2107683635       -0.4770139482
 C       -13.3656388474        8.5309993089        0.9018012065
 C       -10.1978483960        7.3595134772        5.8283682035
 C        -9.4784960470        6.9611383902        3.4238645483
 H        -9.8843106955        5.2608032468        7.2245096477
 H        -8.7037803130        3.8133268009        7.1186613996
 H       -10.3632464143        3.7557767622        6.4687575541
 H       -12.1726699820        4.2027663314        2.8983819246
 H       -11.0624935782        5.3278583871        2.3206156563
 H       -12.6801048621        7.2640701917        2.5277430685
 H       -13.7259554563        6.1927687323        3.3888574952
 H       -13.6846763511        5.6068060071       -2.0575551095
 H       -12.2327947415        4.9088146006       -1.3662300023
 H       -11.9942430857        7.1415723175       -3.3736784868
 H       -12.3252041658        5.4059316579       -3.8738515458
 H        -8.8035612192        5.1581784771       -6.5800665670
 H       -10.1806604504        4.7047434451       -5.5726366326
 H        -7.7555182800        3.0139386629       -6.2289467813
 H        -9.4911381809        2.5636686224       -6.5514284760
 H        -9.3381628451       -1.8109467228       -3.4016337376
 H       -10.6594410384       -0.6670056938       -3.2232184081
 H        -8.6715158025       -1.2885504066       -0.9889839087
 H       -10.0849076345       -2.3238924202       -1.3779664016
 H       -10.4903605599        1.1771133615        3.5248674339
 H       -10.7955506010        2.1299873286        2.0758747628
 H        -8.1901134628        1.3252395246        3.4013487664
 H        -8.8664869489        3.0215291116        3.5400274959
 H        -6.0788893510        4.8825601716        2.8013418285
 H        -4.9136620043        5.6146012826        1.4714247345
 H        -4.4423429372        4.1850510599        2.4626116832
 H        -4.5907828298        1.9320371277        2.2377346884
 H        -5.7553026683        0.7373956550        2.6933403615
 H        -5.8741173266        2.4576698567        3.3219581829
 H        -5.1780798970        1.1166872913       -0.1560761027
 H        -6.3354614014        2.1617411269       -0.7992586769
 H        -6.8536399440        0.6286868303       -0.0292765893
 H       -12.9347658636       -1.0529187657        0.7572715110
 H       -12.5991211014        0.6801018598        0.6876019091
 H       -12.4763816859       -0.1719621858        2.3037903227
 H       -10.8941051358       -2.1605722919        2.4049842072
 H        -9.5507672809       -2.3429650073        1.2532644248
 H       -11.2265013818       -2.7579338397        0.6875852849
 H        -9.4845482971        0.2081694854       -6.0018252421
 H        -8.6031289719       -1.1814820900       -5.4142051028
 H        -7.7423624324       -0.0008969300       -6.3433956170
 H        -6.4924107048        1.8850831494       -3.6786033311
 H        -6.2225132141        0.8928602758       -5.1948435956
 H        -6.3015600208        0.1882993185       -3.6496370631
 H        -8.8764107363        7.4572583730       -5.6472211326
 H        -9.9359363189        8.2636360430       -4.5067855049
 H       -10.5226870451        6.9445641229       -5.3371108770
 H        -7.2183889889        7.2759927660       -3.3276580029
 H        -8.0580365675        6.5228389474       -1.9616833989
 H        -8.5954394533        8.0080530719       -2.4821171873
 H       -15.2637915271        6.2878362402       -0.9352228273
 H       -14.9701278379        8.0603485525       -1.1453305538
 H       -15.7093324504        7.4609678076        0.3410560461
 H       -13.4184381857        9.2518659925        0.0579911465
 H       -12.3327533624        8.4302533180        1.1935412803
 H       -14.0464255728        8.8943244807        1.6266052764
 H       -10.9180536640        7.0276070460        6.5900901342
 H       -10.5857088465        8.2251765270        5.3586520024
 H        -9.3239746158        7.5282693618        6.4343431681
 H        -9.0958692130        6.2716813186        2.6575593847
 H        -8.7697587805        7.7363209322        3.6171970357
 H       -10.3136444897        7.4686198867        2.9434078199
 Na       -8.2100246822        3.4067296465       -1.6013754086
