117

 C        -8.1483973070        5.4049060051        6.0462510991
 C        -8.7353583368        5.2847044690        4.6390192450
 O        -8.3334573276        4.4581612828        3.8247355577
 C        -9.8045294952        6.2623894877        4.1039685743
 C       -11.1516135285        5.3581717661        4.0317853373
 O       -11.3663602317        4.5693090245        4.9338966376
 C       -12.0589143334        5.4533540176        2.7970914903
 C       -12.7247606283        6.7797163489        2.5170566205
 C       -13.2539404909        6.8599403164        1.0274421134
 O       -13.6688227623        5.8217355012        0.5441298002
 C       -13.0991227215        8.1256057007        0.0588493124
 C       -12.2222047964        7.6385137240       -1.2112884242
 O       -11.0817023210        8.0610883541       -1.3944688964
 C       -12.7776882800        6.4779328701       -2.0848298125
 C       -11.7845807572        6.2674748240       -3.2611464462
 C       -10.4098497641        5.5659371263       -3.0115675184
 O       -10.3921271752        4.7467754265       -2.1048124539
 C        -9.2678488105        5.9770151092       -4.0066885952
 C        -8.3825134222        4.7021959739       -4.1471101600
 O        -7.4654758970        4.5038121617       -3.4144882337
 C        -8.6051983745        3.8196435633       -5.4181103125
 C        -8.0474409407        2.4661412746       -5.2375866424
 C        -8.7881351295        1.6831027118       -4.1010955864
 O        -9.8961370408        2.0982421139       -3.7473382673
 C        -8.1765672955        0.3763520778       -3.4031454218
 C        -9.1720674388        0.0357039468       -2.2105633408
 O        -9.2515785846        0.7836372200       -1.2768093210
 C        -9.9473882429       -1.3309893780       -2.2382666572
 C       -10.3511572027       -1.8856461187       -0.9264287044
 C       -11.3010941934       -0.8825565162       -0.2313809657
 O       -11.9322844139       -0.1003219213       -0.8727334170
 C       -11.5474779310       -0.9376705192        1.3692788432
 C       -10.2281913210       -0.2958566136        1.8525542335
 O        -9.2211545648       -0.9828968230        1.8677569881
 C       -10.0590480162        1.2611508037        1.9836231244
 C        -8.5547870579        1.6742597554        2.3531993814
 C        -8.0152804532        2.7712187299        1.4600220011
 O        -8.7326139471        3.4964331573        0.7351034028
 C        -6.4042387829        2.9622714048        1.4201055743
 C        -6.2006646226        4.0980016341        0.4022478692
 O        -6.3496883040        3.9690203073       -0.8081147772
 C        -5.7292711236        5.4702477480        1.0018731609
 C        -5.8694328629        3.3687458196        2.8377088602
 C        -5.6391163064        1.7309508461        0.8627744443
 C       -12.8536123661       -0.2277793157        1.7426250455
 C       -11.5334634676       -2.4461086766        1.7374113748
 C        -7.9843640081       -0.7324183626       -4.4167120702
 C        -6.7643298634        0.7677260516       -2.7809754104
 C        -9.7975771184        6.3621712779       -5.4030609649
 C        -8.3953228192        7.1357327579       -3.3950252732
 C       -14.5136978624        8.5920973992       -0.4506478359
 C       -12.4422956432        9.3345560553        0.8365728894
 C       -10.0644700804        7.3927292586        5.1208191597
 C        -9.2338066646        6.8171603191        2.7145932982
 H        -7.6237138237        4.4091332614        6.3390435880
 H        -8.9488714908        5.6045159237        6.7216888501
 H        -7.4578296381        6.3055794818        5.9992328682
 H       -12.8173711145        4.6264190156        2.8624675847
 H       -11.3692664607        5.0947427934        2.0071148457
 H       -11.9509536242        7.5409527592        2.6178503095
 H       -13.5324860750        6.8046839280        3.1871378924
 H       -13.7497688154        6.7654238681       -2.4553604933
 H       -12.9376907338        5.5837957971       -1.4857947035
 H       -11.6880429293        7.2432675779       -3.7043173513
 H       -12.2549862747        5.7848402237       -4.1639733437
 H        -8.1349918203        4.5097687875       -6.2122401104
 H        -9.6666143374        3.7872896484       -5.6482724438
 H        -7.0013323726        2.5852855289       -4.8644213241
 H        -7.9566829446        1.8433373512       -6.1355220932
 H        -9.2643358412       -2.0507388616       -2.7394510249
 H       -10.8063777607       -1.2811171337       -2.9027900992
 H        -9.4765323523       -2.0854028889       -0.3098306025
 H       -10.8903707317       -2.8523497682       -1.0149404170
 H       -10.7236685695        1.7286906451        2.7228983815
 H       -10.2830687414        1.6117849036        0.9909906136
 H        -7.9328809616        0.7658421632        2.2051131910
 H        -8.3415838144        1.9109428101        3.4120780014
 H        -6.3328215458        5.7587510703        1.9388456722
 H        -5.8285463603        6.2518929398        0.2361931821
 H        -4.6744036420        5.1723141147        1.2768203168
 H        -4.7489862728        3.2525485546        2.8820368539
 H        -6.1943112409        2.4964517548        3.4189399742
 H        -6.2965750503        4.3307911062        3.2554144625
 H        -4.5870868693        2.0113602588        0.7506331139
 H        -5.9167566885        1.4091822073       -0.1165047562
 H        -5.5887851290        0.8673817820        1.4724529417
 H       -13.7092986403       -0.7411496796        1.3479726085
 H       -12.9631848592        0.7735574990        1.3680918693
 H       -12.9449325900       -0.2891933380        2.8224493978
 H       -11.5647537412       -2.5410236222        2.8427748795
 H       -10.5514222506       -2.8742285865        1.4468918619
 H       -12.3694344842       -3.0929900587        1.3003500685
 H        -8.8541461328       -1.3469346764       -4.6536408870
 H        -7.1896936305       -1.3982830816       -4.0227485348
 H        -7.5156318002       -0.3202318998       -5.3467512222
 H        -5.8855911951        0.1757897669       -3.0563422359
 H        -6.9659276683        0.7609208477       -1.7363958148
 H        -6.4252241300        1.8349374551       -2.9591322435
 H        -9.0500312555        6.7581035742       -6.0226584508
 H       -10.6412607411        7.0885943654       -5.4441087004
 H       -10.2691874932        5.5487728552       -5.8759856956
 H        -7.4658688130        7.2738381936       -3.9459156063
 H        -8.1341872828        6.9058525926       -2.3535888372
 H        -9.0574361547        7.9755423997       -3.4114139046
 H       -14.9584591943        7.8941195835       -1.1476697970
 H       -14.3491194871        9.5037388163       -0.9917145905
 H       -15.2693797754        8.7743652229        0.3592850382
 H       -12.3322922208       10.3553475278        0.3309883491
 H       -11.4788585612        8.9770163125        1.1735498981
 H       -12.9941056280        9.6389559983        1.7276625237
 H       -10.7527311072        7.1007491156        5.9004073843
 H       -10.4563402470        8.2744963480        4.5852599988
 H        -9.1235783273        7.6005029208        5.6975454588
 H        -9.1862136115        6.1770035525        1.8402336547
 H        -8.2619478259        7.1892070676        2.8692543598
 H        -9.7717019053        7.6991310749        2.3628501357
 Na       -8.6566205659        3.2788160907       -1.4415053598
