117

 C        -8.6155000887        5.7271712591        6.3765221520
 C        -8.7382348096        5.6185987579        4.8668577765
 O        -8.0872824246        4.7993720417        4.2297899628
 C        -9.7403352690        6.5733189669        4.1009385892
 C       -11.2434641084        5.8426586227        3.8516786629
 O       -11.7919186429        5.5018384389        4.8749868326
 C       -11.7869821953        5.8410745647        2.4927947342
 C       -12.6077656862        7.1141011455        2.1685410364
 C       -13.3025780048        7.1563282150        0.7847924914
 O       -13.9601238649        6.2453511335        0.3788953945
 C       -12.9494097493        8.2973760181       -0.3030845397
 C       -12.1013111381        7.6982684952       -1.4046971838
 O       -11.0546518704        8.1584924957       -1.7456634325
 C       -12.5554003536        6.4002921629       -2.1617406201
 C       -11.7643648939        6.1635399185       -3.4342201040
 C       -10.4304890286        5.5316715203       -3.1705256674
 O       -10.3205699318        4.8164653074       -2.1490149282
 C        -9.2013050255        5.7123842875       -4.0997022592
 C        -8.4325201937        4.3889889980       -4.3244581100
 O        -7.5507990711        4.0109948462       -3.5519166535
 C        -8.8221349635        3.6497056145       -5.5999775214
 C        -8.4186117276        2.1422471199       -5.4860008389
 C        -8.9671591696        1.5647944863       -4.1687893400
 O        -9.8653973045        2.0564948753       -3.5556565485
 C        -8.2795814607        0.1535252199       -3.6621119310
 C        -8.8611536743       -0.0793033375       -2.1948940985
 O        -8.6517229240        0.8080002038       -1.4354408555
 C        -9.7190251912       -1.3733305995       -1.9723403567
 C       -10.0670576935       -1.7045380832       -0.4903270028
 C       -11.2345647165       -0.8156364354        0.0805474516
 O       -11.9125020043       -0.1318636034       -0.6569802203
 C       -11.4829390796       -0.7868884930        1.5989557855
 C       -10.1529293090       -0.1651237621        2.2003338118
 O        -9.0913416108       -0.8059683709        2.1807206314
 C       -10.0920589826        1.1552072576        2.8683607964
 C        -8.6489217393        1.6811918990        2.9429206133
 C        -8.1809777538        2.5506957291        1.7673506109
 O        -8.9137936799        3.1349924727        1.0118020118
 C        -6.5793612529        2.5749528504        1.4949561349
 C        -6.2693407386        3.8145347063        0.5384633867
 O        -7.0464985393        4.2918942755       -0.2326737681
 C        -4.8477283339        4.4588686019        0.6931864718
 C        -5.8838052220        2.5994790643        2.8444149979
 C        -6.2230197671        1.3808562203        0.5318977765
 C       -12.7607783811       -0.0313369813        1.9554634647
 C       -11.5833055340       -2.2441877018        2.2056767858
 C        -8.6217220849       -0.9288596778       -4.7516777696
 C        -6.7249687894        0.2729222618       -3.7700377318
 C        -9.6593832082        6.3318611248       -5.4514318922
 C        -8.3148634894        6.6774661696       -3.2251164936
 C       -14.3418514226        8.7352237755       -0.7843773275
 C       -12.2826566485        9.5812659481        0.2630278621
 C        -9.9404674399        7.7849928633        4.9786952189
 C        -9.0261438372        6.8878338387        2.8022861804
 H        -8.2957405837        4.7855225570        6.6376081974
 H        -9.5293487628        5.9980979688        6.8954130104
 H        -7.7835332024        6.4088808086        6.6016188288
 H       -12.4726026268        4.9805366674        2.3837134959
 H       -10.9756894800        5.8314781106        1.7448571307
 H       -11.9689815166        8.0046307639        2.2034711421
 H       -13.2878179194        7.2922359549        2.9809850933
 H       -13.6013290352        6.4946772328       -2.4512262606
 H       -12.4338967189        5.4853640429       -1.5344916891
 H       -11.7694158396        7.0482837552       -4.0526188363
 H       -12.3877333268        5.3930369639       -3.9409823124
 H        -8.3484138771        4.2266982478       -6.4912842975
 H        -9.8636108267        3.7662137819       -5.6561327547
 H        -7.3673356588        2.0159390547       -5.3250203684
 H        -8.7975128876        1.6449754013       -6.3520916729
 H        -9.2548953029       -2.2937330864       -2.3967879444
 H       -10.6644796847       -1.1979839206       -2.5119542823
 H        -9.1894505466       -1.5367381306        0.0794017044
 H       -10.3733958787       -2.7407601883       -0.4575115513
 H       -10.4231966557        1.0354954136        3.9172148880
 H       -10.7600890806        1.8426288563        2.3481033294
 H        -7.9449835773        0.7983801937        2.9509279996
 H        -8.4243981320        2.2011206327        3.8668378724
 H        -4.6804528447        4.8909652961        1.6593957052
 H        -4.8734674177        5.2255521359       -0.0824769911
 H        -4.1374167391        3.7876738339        0.3863020918
 H        -4.9276393170        3.0321041718        2.7685772389
 H        -5.8717757367        1.6247677878        3.2023720953
 H        -6.4369477134        3.2438613193        3.5131820258
 H        -5.2165508282        1.6573654870        0.0627250677
 H        -6.8921857376        1.1828774023       -0.3452286421
 H        -6.1061275539        0.4348139849        1.0117725435
 H       -13.4486445092       -0.8529827843        2.2168151795
 H       -13.1567808519        0.6433290750        1.1973202166
 H       -12.7171785236        0.6568470063        2.8187181222
 H       -11.7053486457       -2.1496652762        3.2452291145
 H       -10.6600633953       -2.8510224516        2.0931900131
 H       -12.3665292003       -2.8456220583        1.8290052197
 H        -9.4035435256       -1.6496002709       -4.7282220965
 H        -7.7226564100       -1.5298900617       -4.8113473039
 H        -8.7088226115       -0.4488171474       -5.7066996018
 H        -6.2083005475       -0.6992370760       -3.7094538203
 H        -6.4072336106        0.8276601420       -2.8973527018
 H        -6.4187513067        0.8466393216       -4.5930177951
 H        -8.9781831655        6.0192881751       -6.2740057309
 H        -9.8167170744        7.4167823945       -5.3105626627
 H       -10.6269675347        5.8846381202       -5.8179726329
 H        -7.3239367932        6.8206322526       -3.7351469666
 H        -8.2878876855        6.2890932461       -2.2509271740
 H        -8.8508843426        7.6447959334       -3.2450354997
 H       -14.9058492733        7.8779452259       -1.1913360270
 H       -14.4505749970        9.5752322261       -1.4333221264
 H       -14.8713330420        9.0182580509        0.1290003105
 H       -12.0386866751       10.3720352662       -0.4424334317
 H       -11.3791773088        9.4673030708        0.8570660292
 H       -12.8865683221       10.0045223532        1.0874609930
 H       -10.8248164454        7.6503645766        5.5159499454
 H        -9.9978021659        8.7188911827        4.4172482682
 H        -9.0834821491        7.9662152084        5.6205977952
 H        -8.5023533315        6.0475733885        2.3398435459
 H        -8.2173264692        7.5544092979        3.0624121043
 H        -9.6263833176        7.4547665143        2.0710499064
 Na       -8.6112028279        3.3262040695       -1.4870110797
