117

 C        -8.1700061739        5.5410165467        6.0069689326
 C        -8.8626845016        5.2980147085        4.6462340555
 O        -8.5925060471        4.2993687948        4.0019058817
 C        -9.8134345922        6.3631273888        4.0651645371
 C       -11.2093299526        5.5848660494        3.8933783684
 O       -11.7331019646        5.0600706577        4.8455536438
 C       -11.8432927152        5.5278003979        2.5404611704
 C       -12.5685253828        6.8496807870        2.3122691978
 C       -13.1999049805        7.0146052671        0.9346490345
 O       -13.9182419330        6.1198981384        0.5548779215
 C       -12.9176554328        8.2334881766       -0.1440674793
 C       -12.1673451507        7.7186465901       -1.3621762555
 O       -11.1358911103        8.2490037473       -1.6882374665
 C       -12.6402517049        6.5073382825       -2.1146316540
 C       -11.8522434518        6.2719661725       -3.4037197398
 C       -10.4893430719        5.5696542692       -3.1250791527
 O       -10.2584779227        4.9849821918       -2.0532170595
 C        -9.2602971736        5.8843629728       -4.1006906965
 C        -8.5374020415        4.5493907576       -4.2560225170
 O        -7.7759979480        4.1713782770       -3.3774112019
 C        -8.7307746851        3.7061174979       -5.5153184506
 C        -8.1759805245        2.2661975635       -5.2669182754
 C        -8.6831782896        1.6482038861       -3.9360337608
 O        -9.6040752420        2.1873605731       -3.3397203934
 C        -8.2086634538        0.1552360977       -3.4794571117
 C        -8.9451979002       -0.1511421824       -2.1115724988
 O        -8.8965482595        0.5556434683       -1.1407196887
 C        -9.8687318611       -1.4142989810       -2.1883939383
 C       -10.3465947029       -1.8371831289       -0.7928144937
 C       -11.2683506552       -0.7331376248       -0.0716742789
 O       -12.0193129668       -0.0591497239       -0.7793480693
 C       -11.4075843678       -0.8067823196        1.4455274287
 C       -10.0846585675       -0.1616355111        1.9751083390
 O        -9.0646812716       -0.8511666321        2.0941325820
 C       -10.0178782020        1.3054768322        2.2188366798
 C        -8.5910042574        1.8010595888        2.5977713073
 C        -8.1392699841        2.8121885552        1.5785459046
 O        -8.9478393309        3.3641480926        0.8367090978
 C        -6.5890339107        2.9725627766        1.3685752014
 C        -6.1780222223        4.1079549792        0.4746787030
 O        -6.7425117745        4.1811695908       -0.5785180135
 C        -4.9293785930        4.9793622601        0.8674119497
 C        -5.8817430244        2.9651165978        2.7743968938
 C        -6.3078432167        1.6303473059        0.5643289144
 C       -12.6082093059       -0.0268611583        1.9848240739
 C       -11.4408600132       -2.3323008500        1.8861585825
 C        -8.2762240438       -0.8538701497       -4.5697862607
 C        -6.6508296895        0.3233665185       -3.1420038941
 C        -9.7876409240        6.4969532985       -5.4501044280
 C        -8.3616903231        6.8817166411       -3.3152009587
 C       -14.3644510969        8.6037197842       -0.5323028267
 C       -12.2462048498        9.3686233418        0.6072318381
 C        -9.9752964995        7.6077829156        5.0485781106
 C        -9.2022578064        6.8233380711        2.7829233390
 H        -7.2468287705        4.9832545125        6.1818688865
 H        -8.8501921757        5.2890543761        6.7762093763
 H        -8.0971959357        6.6703970238        6.0156810996
 H       -12.5807774033        4.6728580869        2.5766253809
 H       -11.1614252665        5.3370415018        1.6796461026
 H       -11.8864072687        7.6767600758        2.4607843727
 H       -13.3154939613        6.8125838587        3.0758327373
 H       -13.6915048148        6.6388592568       -2.3339799850
 H       -12.5622432605        5.6232363275       -1.4656105989
 H       -11.6749482209        7.2510231381       -3.8345974324
 H       -12.5415690095        5.8088099196       -4.1695358643
 H        -8.2767955875        4.1834680610       -6.4952534862
 H        -9.7968425282        3.7967988796       -5.6322499414
 H        -7.0865108875        2.3593684397       -5.1357049981
 H        -8.3688180596        1.6197408484       -6.1132085296
 H        -9.3600848587       -2.3244980106       -2.6013948574
 H       -10.7165375087       -1.1802126833       -2.8481390340
 H        -9.4734663396       -2.0563899593       -0.2395594458
 H       -10.9697212600       -2.7116142523       -0.8850671080
 H       -10.6739462416        1.5274235451        3.0666358761
 H       -10.2928613834        1.8738172253        1.3401830148
 H        -7.8215729023        0.9924614218        2.7056212506
 H        -8.5729170231        2.2847899899        3.5846448485
 H        -5.1789153466        5.6933285045        1.7424157571
 H        -4.5163487226        5.4181575039       -0.0360305280
 H        -4.1925861548        4.2358061444        1.1301978527
 H        -4.7992526764        2.9727797042        2.7213667571
 H        -6.2518370252        2.1082370051        3.2249349561
 H        -6.1682370553        3.8881212024        3.3211300518
 H        -5.2839611966        1.2148460849        0.5999906430
 H        -6.4215986470        1.9006112443       -0.4856960764
 H        -6.9196375212        0.8136122784        0.7864504259
 H       -13.4547930341       -0.2685873280        1.3525104432
 H       -12.5074768392        1.0398798594        1.9791699185
 H       -12.8595096360       -0.2617755644        3.0106859044
 H       -11.5740141022       -2.4562206282        2.9228846283
 H       -10.4201221718       -2.7000032883        1.6404514717
 H       -12.1819498957       -2.9873290921        1.4724098198
 H        -8.9229362095       -0.6038748016       -5.3940513462
 H        -8.4826791549       -1.8745227458       -4.2354403008
 H        -7.2788868817       -0.9674221463       -5.0183798174
 H        -6.1445740482       -0.4645668969       -2.5312719055
 H        -6.5901559579        1.2841947390       -2.6459691988
 H        -6.0418919412        0.3124765546       -4.0653902490
 H        -8.9897325276        6.5702953082       -6.2105406417
 H       -10.0450816096        7.5895457592       -5.4269032877
 H       -10.5713048406        5.8501236237       -5.9082857135
 H        -7.6839383997        7.3770446314       -4.0832762720
 H        -7.7925808806        6.3559534388       -2.5608558246
 H        -9.0353430216        7.5500641678       -2.7505254941
 H       -15.0013998024        7.7339010255       -0.6929425419
 H       -14.3668737635        9.1728019635       -1.4376817528
 H       -14.8018867483        9.3200690852        0.1850585331
 H       -12.4576772784       10.3936434277        0.2340556639
 H       -11.1780796451        9.4691700123        0.6057313934
 H       -12.6796382943        9.4185617502        1.6167995400
 H       -10.1480512766        7.2387455969        6.0165718739
 H       -10.8169298392        8.2265178725        4.7142639403
 H        -9.0665954757        8.2510285196        5.1069120668
 H        -9.0401790444        5.9313571114        2.1314861186
 H        -8.2592714494        7.3629733508        2.9002123935
 H        -9.8775434355        7.4351374339        2.1304367136
 Na       -8.7176730151        3.0720427813       -1.3629158777
