117

 C        -9.3428266020        5.9550310522        6.4344072093
 C        -9.0153037795        6.0741528686        4.9741195499
 O        -8.4549608296        5.2463435504        4.2732478825
 C        -9.5300282834        7.4111159212        4.2003741734
 C       -10.9534718938        6.9563084485        3.8767496990
 O       -11.7063802071        6.7306411557        4.8125739727
 C       -11.3257331999        6.4509913575        2.4756516834
 C       -11.4812421034        7.6329530507        1.4048473786
 C       -12.6224920704        7.3316926113        0.3934928194
 O       -13.5061265193        6.5308297057        0.5845401098
 C       -12.7697621583        8.1447331308       -0.9402811111
 C       -11.9632858159        7.4394080523       -1.9958003600
 O       -10.8100235350        7.7986055515       -2.1560341084
 C       -12.6117720924        6.2837028321       -2.7501436933
 C       -11.6379611340        5.6248072381       -3.6454473662
 C       -10.2992801653        5.1790456598       -2.8340260390
 O       -10.2745657267        4.5321767683       -1.8422648975
 C        -8.8594199240        5.4333754954       -3.6857142087
 C        -8.4899553063        3.9074676637       -4.2659232804
 O        -7.7982735872        3.1697749357       -3.6079852365
 C        -9.3315933647        3.4941797852       -5.4555097605
 C        -9.2678865663        2.0080223971       -5.6309256075
 C        -9.6775048258        1.3302290876       -4.3065515248
 O       -10.4973394286        1.8910213742       -3.6068712430
 C        -9.1016645150       -0.0135231857       -3.8792773776
 C        -9.2524899800       -0.2693035751       -2.3567787484
 O        -8.8137098877        0.5504285374       -1.5527620484
 C        -9.6986496802       -1.5404533369       -1.8602227532
 C        -9.7306563260       -1.5966569000       -0.2886450899
 C       -10.9730997417       -0.8066473385        0.2117306603
 O       -11.7785993126       -0.4447636243       -0.6421216726
 C       -11.2445420698       -0.6891252333        1.7290476461
 C       -10.0522689239        0.0269335414        2.3676568389
 O        -8.9547539271       -0.4515994228        2.2963950624
 C       -10.2781111731        1.5201846927        2.9222557211
 C        -8.8829219433        2.1378685573        3.1347417179
 C        -8.3008014014        2.5595990774        1.7842799085
 O        -8.9242610337        3.2122551493        0.9957562768
 C        -6.7445401770        2.3822107357        1.6223906547
 C        -6.1573213409        3.6717872202        0.8722255900
 O        -6.1660583160        3.5678267779       -0.3568876611
 C        -5.4004574571        4.6889616537        1.6263487017
 C        -6.0860253584        2.2000403821        2.9786515780
 C        -6.3860607359        1.2101412876        0.6789896593
 C       -12.6693217142       -0.0293801405        1.9606196205
 C       -11.1871396085       -2.1233752776        2.3518653479
 C       -10.0446441569       -1.0588929829       -4.7119734116
 C        -7.6832578506       -0.4167400757       -4.1959762519
 C        -8.9099245415        6.5219680847       -4.7151425290
 C        -7.8526173322        5.9676072667       -2.6474747603
 C       -14.2457881928        8.2565429851       -1.3147611243
 C       -12.1880124241        9.5971663636       -0.8420063014
 C        -9.5298504193        8.6871885763        5.1188639383
 C        -8.5452254242        7.6941073572        3.0267188375
 H        -9.4893977987        4.8187436694        6.6167444831
 H       -10.1848628239        6.5482467424        6.8417235354
 H        -8.4365628012        6.1820451475        6.9717352557
 H       -12.2439599530        5.8775316517        2.4889201996
 H       -10.5743471203        5.6943734537        2.1894473905
 H       -10.5466203314        7.7169696254        0.8328783380
 H       -11.6582838685        8.5129700352        2.0522132638
 H       -13.4469612816        6.7179709822       -3.2973231326
 H       -13.0686342043        5.5222255181       -2.0968781061
 H       -11.5221813306        6.2983900913       -4.5153434666
 H       -12.0853789379        4.7233799054       -4.0421246167
 H        -8.9766986392        4.0409438520       -6.3202276051
 H       -10.3557172188        3.8175431501       -5.2864454064
 H        -8.3132216735        1.6351135431       -5.9967183120
 H        -9.9761932459        1.6510219895       -6.4404302201
 H        -9.1709188908       -2.3056471743       -2.4055912773
 H       -10.7514457127       -1.7791928854       -2.0224664025
 H        -8.8403311987       -1.1841929727        0.2072993915
 H        -9.7294939594       -2.6319762473        0.1479802186
 H       -10.8812313956        1.6472056366        3.8054143658
 H       -10.8059443989        2.0802995700        2.1289319674
 H        -8.2766062456        1.2838272166        3.5659401323
 H        -8.9424456337        2.9765219150        3.7814145865
 H        -5.9894537950        5.2050155136        2.4424843811
 H        -5.0414770666        5.3644517598        0.8225653787
 H        -4.5362446907        4.0581594887        2.0674633189
 H        -5.0254249537        2.0886610787        2.9119786203
 H        -6.5158825635        1.3912513656        3.5934488915
 H        -6.1545975422        3.0641404976        3.5759196723
 H        -5.3957425549        1.2803231153        0.2849928580
 H        -7.0440702212        1.1455592258       -0.1598385137
 H        -6.3729863911        0.2506092280        1.2772612305
 H       -13.4835602744       -0.7238043830        1.7516367776
 H       -12.7487258863        0.8836042283        1.3584482874
 H       -12.7641142560        0.2493472280        2.9999654576
 H       -11.8383386954       -2.1369572555        3.2542569887
 H       -10.2448138090       -2.4295098463        2.6786189412
 H       -11.6024013581       -2.8777408244        1.6997445596
 H       -11.0247634349       -1.1737528481       -4.2496151369
 H        -9.5482216837       -1.9961768639       -4.7962660231
 H       -10.3099817181       -0.7760621617       -5.6999686723
 H        -7.7108255631       -1.5131852693       -4.0979689430
 H        -6.9228200551       -0.0803794527       -3.4628540930
 H        -7.4075243724       -0.2084283329       -5.2045352197
 H        -7.9104431071        6.9063947768       -5.0525993390
 H        -9.4710318261        7.3971837270       -4.3530421739
 H        -9.3122557141        6.1168064259       -5.6761058630
 H        -6.9425693101        6.2943690047       -3.1511899094
 H        -7.5928994395        5.1196054388       -1.9066379569
 H        -8.3989646087        6.7571732733       -2.1029089551
 H       -14.6206692005        7.3105423487       -1.6970073685
 H       -14.4173997666        8.9736544607       -2.1378078032
 H       -14.8354646422        8.5778209427       -0.5033190645
 H       -12.3056514199       10.1441083405       -1.7299955167
 H       -11.0839031242        9.5663639650       -0.9314948541
 H       -12.5144589745       10.1931092480        0.0326349156
 H        -9.6575294674        8.4609113347        6.1822210802
 H       -10.2395104213        9.4284517571        4.7701502250
 H        -8.5921237095        9.1441797396        5.0523938102
 H        -8.4605131836        6.7304191915        2.5044850139
 H        -7.5401350195        7.9941478520        3.4478020349
 H        -8.9794827540        8.3910292046        2.3172621356
 Na       -8.3651036055        3.0259326326       -1.3730601542
