117

 C        -9.2268846005        5.6228359051        6.0704329348
 C        -9.0412391420        6.1943476560        4.5965153884
 O        -8.7599018427        5.3727790615        3.7293301082
 C        -9.2622499107        7.6727311773        4.2650349501
 C       -10.7268608035        7.8160367541        3.7377987255
 O       -11.3602656981        8.7872585922        4.0630052282
 C       -11.2803177385        6.8682108232        2.6441041485
 C       -11.3847070568        7.7364946967        1.3325091245
 C       -12.4271604673        7.2536800035        0.3382984399
 O       -13.3035825524        6.5151576711        0.7386760545
 C       -12.5290660156        7.9668703076       -1.0239236223
 C       -11.7493175994        7.1564734415       -1.9882739988
 O       -10.7050446735        7.4929084279       -2.5192021823
 C       -12.4281125466        5.7094720428       -2.4462663191
 C       -11.4642619138        4.9196951901       -3.3518005187
 C       -10.0800702765        4.9920897803       -2.9653531606
 O        -9.8736466656        4.5188635641       -1.8040645094
 C        -8.7098658541        5.3045939756       -3.8476761019
 C        -8.2739205779        3.8815913450       -4.3307905818
 O        -7.4628073289        3.1427237445       -3.7135867544
 C        -8.8657313933        3.2357640311       -5.6134810822
 C        -8.8053708201        1.7451955876       -5.5016181445
 C        -9.5055679125        1.3274593556       -4.1754190037
 O       -10.0632095957        2.1552592341       -3.4700202307
 C        -9.5325467746       -0.1628126471       -3.8620211298
 C        -9.6686081654       -0.3240041873       -2.1682097397
 O        -9.2475222503        0.5565281513       -1.4775157873
 C       -10.2267496356       -1.6522920845       -1.6510974464
 C       -10.3022834648       -1.8572188409       -0.1090155423
 C       -11.4786519510       -1.0921354822        0.4329881327
 O       -12.3131988859       -0.6477190487       -0.3188828243
 C       -11.4918634535       -0.8581285577        2.0250924067
 C       -10.2166590674        0.0456354488        2.3809920629
 O        -9.0933016167       -0.4053802742        2.2363054770
 C       -10.4448955588        1.5067193189        2.9249561258
 C        -9.1019127731        2.2692608475        3.1158478924
 C        -8.4595173216        2.4731441598        1.7517161733
 O        -9.0109640276        2.3897680355        0.6834859346
 C        -6.7950842381        2.6682974487        1.7104997684
 C        -6.4427284305        4.0169446226        0.8955586029
 O        -6.6343418312        4.0489515353       -0.3321329944
 C        -5.7524902894        5.3043986853        1.5150273761
 C        -6.1545920035        2.8189232181        3.1182478167
 C        -6.2489374398        1.3840963427        1.0817559085
 C       -12.8389444493       -0.1766062280        2.3955394362
 C       -11.2636596071       -2.2897900969        2.6847968385
 C       -10.6537519582       -0.8817197072       -4.6126793591
 C        -8.1225825351       -0.8733481459       -4.2799752061
 C        -8.8357936478        6.2960062586       -5.0344237046
 C        -7.5461984593        5.8057709590       -2.9338039655
 C       -14.0591606351        8.0989422661       -1.4456704144
 C       -11.9005658415        9.3989654217       -0.9817866083
 C        -8.9675926257        8.5512527887        5.5760451214
 C        -8.2273587324        8.0222591149        3.2416274352
 H        -8.6234340815        4.7513248198        6.2197990690
 H       -10.1906652365        5.3420773263        6.3614269729
 H        -8.8270232566        6.3666009992        6.8041065674
 H       -12.3470475988        6.7849274544        2.9195074615
 H       -10.7995076379        5.8983027762        2.3607881430
 H       -10.4867369649        7.7619938619        0.7453031142
 H       -11.5592615227        8.7671603509        1.6406731938
 H       -13.3104329436        5.8604804354       -3.0641870075
 H       -12.8475582923        5.2064809082       -1.5799453022
 H       -11.7145535511        5.2926500192       -4.4052731906
 H       -11.6729957899        3.8463790112       -3.3324375035
 H        -8.3575391294        3.5883456889       -6.5008726866
 H        -9.9899821455        3.5044217532       -5.7116252698
 H        -7.8108523481        1.3915358715       -5.4543724323
 H        -9.3585468239        1.2311135386       -6.3017119120
 H        -9.6679226270       -2.4960593031       -2.0518293047
 H       -11.2687367045       -1.8693316070       -1.9538121421
 H        -9.3872998917       -1.5490394706        0.3489039566
 H       -10.4308910314       -2.9091522258        0.0679356059
 H       -10.9350235098        1.4697891599        3.8776159259
 H       -11.1180116199        2.0075204326        2.1865720204
 H        -8.4459711258        1.7326185608        3.8762773897
 H        -9.3758973916        3.2128747877        3.5446686263
 H        -6.3450333745        5.5344077085        2.3894113783
 H        -5.7758326840        6.1070013625        0.7597355363
 H        -4.7798294447        5.0720263031        1.6884383095
 H        -5.1326222952        3.1475194339        3.0406523860
 H        -6.0103178101        1.8366223065        3.5406405418
 H        -6.7505993128        3.4309774538        3.8270032945
 H        -5.2632186833        1.6116338197        0.7309438021
 H        -6.9031745790        0.9688291390        0.3095661352
 H        -6.2287110082        0.6409999486        1.9140431408
 H       -13.5789673878       -0.9712251537        2.3536431165
 H       -13.1668968382        0.5158813174        1.6086906949
 H       -12.7998202793        0.2532810807        3.4026225779
 H       -11.8307496602       -2.3485506951        3.6455244918
 H       -10.2301526497       -2.5978631492        2.8177595875
 H       -11.7284237657       -3.0560679661        2.0063240205
 H       -11.5269428397       -0.1912792333       -4.6315106480
 H       -11.0439479594       -1.7319913540       -4.0116979733
 H       -10.2992254830       -1.2170369942       -5.6096990922
 H        -8.2501877941       -1.9068763633       -4.0112726774
 H        -7.3284467544       -0.3757736716       -3.7147327951
 H        -7.8951505260       -0.7464249419       -5.3650199041
 H        -7.8530632955        6.3963965566       -5.3696636755
 H        -9.1394317228        7.3038684217       -4.7487929097
 H        -9.4629838811        5.9623715287       -5.7852272023
 H        -6.5899332581        5.7037578031       -3.3616712766
 H        -7.6690336061        5.2865252826       -2.0029001814
 H        -7.6748530693        6.8461504072       -2.7194613087
 H       -14.5350246948        7.1683603231       -1.6850938799
 H       -14.0180920447        8.8058269723       -2.3072350414
 H       -14.6581983615        8.5537928781       -0.6639235016
 H       -12.1819617946        9.9162582791       -1.9201670991
 H       -10.9040108652        9.3277407058       -0.6551985195
 H       -12.4061646333        9.9668243762       -0.2389256136
 H        -9.7480854242        8.5238836300        6.3917564984
 H        -8.9471701282        9.6082244998        5.3008957559
 H        -7.9348619640        8.3387754446        5.8693795171
 H        -8.4008149787        7.4122283670        2.3681291578
 H        -7.1968955676        7.8596047890        3.6096772478
 H        -8.3724623940        9.0691591859        3.0981337579
 Na       -8.1663769845        2.7560256038       -1.5184131064
