117

 C        -9.4222413768        5.5878796650        5.8736096049
 C        -9.0730746770        6.1825005718        4.5302348655
 O        -8.7075804978        5.4593969938        3.5939370542
 C        -9.1018041247        7.7096096943        4.3842869005
 C       -10.5490730091        8.2534471611        3.7654494605
 O       -10.9890465331        9.2451053410        4.2519781569
 C       -11.2325389257        7.4382067893        2.5993979031
 C       -11.2437562944        8.1144238828        1.1977937903
 C       -12.2761128253        7.3923937499        0.3935000037
 O       -12.9811969126        6.4831523806        0.8294123126
 C       -12.5309017803        7.8928542530       -1.0568247591
 C       -11.7131429520        6.9653961251       -1.9748980031
 O       -10.6000406974        7.3663198930       -2.2228528994
 C       -12.3132439529        5.6621129389       -2.6096253865
 C       -11.3532521558        5.1195985492       -3.6914694293
 C        -9.9546172273        5.0963619865       -3.0988808136
 O        -9.7641962162        4.7372503293       -1.9366297762
 C        -8.6283419370        5.2922142802       -4.0944602763
 C        -8.0433610713        3.8727622806       -4.4050676487
 O        -7.2575821330        3.3112831129       -3.6253761961
 C        -8.6210824126        3.0992687406       -5.6339397138
 C        -8.5804665593        1.6037945511       -5.4403482865
 C        -9.3553095681        1.1737360168       -4.1373579092
 O        -9.9725118304        2.0391812849       -3.5533734296
 C        -9.5480928483       -0.4017041292       -3.7743724442
 C        -9.7527419245       -0.5097530601       -2.2175393781
 O        -9.2705684340        0.3359878890       -1.5107201498
 C       -10.3552301141       -1.7486841701       -1.6440885980
 C       -10.4772262050       -1.8288755749       -0.1168657188
 C       -11.6384841547       -1.0585927972        0.5270531417
 O       -12.5074951545       -0.5184939015       -0.1215937630
 C       -11.5451639468       -0.8956216625        2.1443346293
 C       -10.2754337646        0.0533597875        2.3718338266
 O        -9.1584526693       -0.3219491593        2.1488005516
 C       -10.5024157326        1.5413088648        2.7821685307
 C        -9.1676398105        2.2704643348        3.0454318448
 C        -8.3356412471        2.3179075268        1.7764118128
 O        -8.9445707126        2.1345500367        0.7392945187
 C        -6.8077026114        2.7018249979        1.8964073255
 C        -6.7408953357        3.9095839824        0.9321156178
 O        -6.6653511373        3.7333684421       -0.2951018184
 C        -6.4713232768        5.3285970591        1.4063417870
 C        -6.3329867362        2.9460291979        3.3386863682
 C        -5.9156603202        1.5608821920        1.3304781143
 C       -12.9029751033       -0.3024283690        2.6861932118
 C       -11.2175483291       -2.2298976741        2.8810043415
 C       -10.7986523652       -0.8661702415       -4.5750931717
 C        -8.3835464509       -1.2473081858       -4.1734621629
 C        -9.0767286719        6.1039191851       -5.2603795276
 C        -7.5855858994        6.1501377799       -3.3029424248
 C       -14.1295478922        7.8784404091       -1.3619559605
 C       -12.0755883319        9.3501269719       -1.3337406185
 C        -8.7737085178        8.3969532944        5.6631406947
 C        -8.0854273561        8.1647801901        3.2731129532
 H       -10.1258063865        4.7335658809        5.6878417493
 H        -9.9648537683        6.1788235478        6.6074973754
 H        -8.5566217755        5.1293007355        6.3764642701
 H       -12.2342585317        7.2107103937        2.9512280197
 H       -10.7132151192        6.4945143990        2.4460209394
 H       -10.2556592939        8.3178672093        0.7090537602
 H       -11.6393623599        9.1185671151        1.3788757442
 H       -13.3469966618        5.9158742754       -2.8933913107
 H       -12.3638614598        4.7893956017       -1.9330101888
 H       -11.4070163794        5.6701248799       -4.6230895122
 H       -11.5690826328        4.0936180152       -3.8467986969
 H        -8.0723342294        3.3447702248       -6.5732044329
 H        -9.6391563677        3.4057419416       -5.8300822391
 H        -7.5719799695        1.2459136531       -5.3829650424
 H        -9.1300293997        1.1095847902       -6.2676683024
 H        -9.8386963179       -2.6457698482       -2.0435836789
 H       -11.3728681313       -1.8563621602       -2.0215608139
 H        -9.5255137045       -1.4218265660        0.2110550826
 H       -10.6303310643       -2.8853805068        0.2564265016
 H       -11.1730477945        1.5635010378        3.6706665057
 H       -11.0300604374        2.0222731863        1.9655842955
 H        -8.5749118211        1.8131613189        3.8713458906
 H        -9.3826788203        3.2617724623        3.4134874973
 H        -6.8404813031        5.6114823303        2.4225117466
 H        -7.0183618592        5.9452717280        0.6820147975
 H        -5.4405181970        5.4314631619        1.2127534315
 H        -5.2380146605        2.8468091041        3.4628039981
 H        -6.9790892942        2.3140974747        3.9911848746
 H        -6.6431833104        3.9744197055        3.6221906283
 H        -4.9378655627        1.8094278744        1.6565169552
 H        -6.0249587629        1.5438357438        0.2724248834
 H        -6.1447413291        0.5587047530        1.8086674279
 H       -13.7479804028       -0.8335096464        2.2710216858
 H       -13.0293543334        0.7106896192        2.3081833383
 H       -12.9184732810       -0.4188350576        3.7484938508
 H       -10.7047239059       -2.0355282330        3.8519404953
 H       -10.6024270922       -2.8177158349        2.2885955450
 H       -12.1493254634       -2.7196302320        3.1959384949
 H       -10.7660271671       -0.3517197730       -5.5355876516
 H       -11.7247473525       -0.6960893731       -4.0387843568
 H       -10.6639958522       -1.9178414813       -4.6315516548
 H        -8.5571894784       -2.2153116362       -3.7079170615
 H        -7.4643642602       -0.7059178836       -3.9377360175
 H        -8.4190551217       -1.5114905559       -5.2021816546
 H        -8.2592123650        6.5579159567       -5.8589937996
 H        -9.6858734843        6.9759409503       -4.8448954108
 H        -9.7270683623        5.4814223798       -5.9074413453
 H        -6.9214467382        6.7330694476       -3.9476150594
 H        -6.9379408260        5.4173846071       -2.7061359892
 H        -8.0826940490        6.8971155527       -2.6482573438
 H       -14.6159407830        7.0286082641       -0.8969508718
 H       -14.3285745917        7.9043216998       -2.4529172195
 H       -14.5453760075        8.7541029741       -0.9289725342
 H       -12.3892656742        9.5883567391       -2.3624111310
 H       -10.9510321683        9.2799345980       -1.2743465111
 H       -12.4481522339       10.0470444392       -0.5640970889
 H        -9.7657866669        8.6563546990        6.0924414985
 H        -8.2516012751        9.3292030210        5.6024988333
 H        -8.3406705353        7.7281010505        6.3480839927
 H        -8.2624069321        7.5539558321        2.3929917712
 H        -7.0949096906        7.8706294340        3.7086848825
 H        -8.1773862576        9.2127738007        3.0449565386
 Na       -8.4951293522        2.5847715536       -1.4533938708
