117

 C       -10.6286445596        6.5444103900        5.6653666962
 C        -9.4037751075        6.6099297368        4.8140719763
 O        -8.8436210398        5.6093193994        4.3946070970
 C        -8.8327831821        8.0520122443        4.3848686789
 C        -9.9410386874        8.7972592098        3.4810694788
 O       -10.1897194832        9.9993609459        3.5583074297
 C       -10.5642259276        7.9272116634        2.4827576197
 C       -11.6608552034        8.6046540822        1.6387131995
 C       -12.1202675792        7.6518958924        0.5253706403
 O       -12.1920218137        6.4429199549        0.6284104049
 C       -12.6493927416        8.1879231824       -0.8970189679
 C       -11.6029096124        7.5477886250       -1.9674191726
 O       -10.7534263631        8.1868396765       -2.5772099790
 C       -11.6965471080        6.0700367640       -2.1468414999
 C       -11.0588954940        5.6688116097       -3.4784804162
 C        -9.9633768290        4.6734827667       -3.2876814569
 O        -9.8340406663        4.1035271459       -2.1784092526
 C        -8.7859170643        4.4436921188       -4.3002953598
 C        -7.8897973299        3.1384546428       -4.2541911266
 O        -7.1094268879        2.8949656251       -3.3587094124
 C        -7.7675078114        2.2847485529       -5.5421186547
 C        -7.8519272624        0.8285665058       -5.1420994527
 C        -9.1526455406        0.7085585844       -4.3630925842
 O        -9.8026095446        1.7058979902       -4.0584424239
 C        -9.7804285506       -0.6287226701       -3.8244103360
 C        -9.8665860463       -0.5056226784       -2.2859440782
 O        -9.1450307750        0.2343541713       -1.6333921155
 C       -10.8501699391       -1.4732622527       -1.5468580488
 C       -10.5823592436       -1.6806417414       -0.0264371142
 C       -11.7020365297       -0.9144234258        0.8162140739
 O       -12.5949848793       -0.2898726955        0.2796358919
 C       -11.5815914894       -0.9149910403        2.3240598968
 C       -10.3329564483        0.0269156186        2.6163322344
 O        -9.2311941124       -0.4361566310        2.6088335094
 C       -10.6721194951        1.5009587464        2.6434468344
 C        -9.4237629737        2.3817555654        2.9508312608
 C        -8.5962232304        2.6195904044        1.6770998507
 O        -9.2667587902        2.6150437248        0.6259735526
 C        -7.0494336305        2.8556526418        1.7815449833
 C        -6.7416682722        3.7874837123        0.5966375122
 O        -6.6352520865        3.2961311347       -0.5162518073
 C        -6.5989571384        5.2868752301        0.7758200154
 C        -6.5537391690        3.4748826138        3.0627899447
 C        -6.4739509905        1.4325972481        1.4157579921
 C       -12.8696800558       -0.5518913916        3.0490145843
 C       -11.2545689570       -2.2835269114        2.9196813413
 C       -11.1356545486       -0.7254920679       -4.5799522474
 C        -8.8668508468       -1.8587668213       -3.9434564077
 C        -9.1694658621        4.7884114073       -5.7845054122
 C        -7.6308931669        5.4660523843       -3.9066258186
 C       -14.0804206902        7.6869922976       -1.1178597516
 C       -12.5350435275        9.7157470669       -1.1080848644
 C        -8.6577425443        8.7913379337        5.7962199406
 C        -7.4088487164        7.8647831150        3.7479846556
 H       -11.1708050747        5.5608523677        5.8318792595
 H       -11.3541509768        7.2935649095        5.2939377905
 H       -10.3831420415        6.9027329505        6.6587542116
 H       -11.0595858729        7.0324839485        2.8614637370
 H        -9.7838968211        7.4832751440        1.8596991936
 H       -11.1946990636        9.5046786742        1.2252969141
 H       -12.5517214914        8.9774771959        2.1742358216
 H       -12.7145311918        5.6812982271       -2.0694116857
 H       -11.0492840003        5.5853762140       -1.3855484204
 H       -10.7774877575        6.5198109876       -4.0162850447
 H       -11.8648453542        5.2569325042       -4.1310807110
 H        -6.8927132493        2.4007011405       -6.2571225552
 H        -8.6511924637        2.4556621663       -6.0971441615
 H        -6.9491999775        0.5765733434       -4.5416659710
 H        -7.8997113775        0.1357480441       -5.9432660500
 H       -10.8579581510       -2.4704239116       -1.9833772345
 H       -11.9088226617       -1.1523584935       -1.6298531226
 H        -9.5928521638       -1.2173283063        0.2314244885
 H       -10.5802580145       -2.7220919974        0.2683777069
 H       -11.4799105228        1.7231165165        3.3617060061
 H       -11.0540950484        1.8026350070        1.6489880730
 H        -8.8944637747        2.0386887763        3.8064146456
 H        -9.8852750814        3.3650414911        3.2673103035
 H        -7.5437928638        5.7171910053        0.3795336527
 H        -5.7194525615        5.5495762359        0.1762519986
 H        -6.4357038234        5.5422982151        1.7945661815
 H        -5.5566702722        3.9209333346        3.1061795510
 H        -6.3180612246        2.6216199916        3.7695133513
 H        -7.3100699987        4.1350327613        3.4527239396
 H        -5.4032266557        1.6003549784        1.3993566715
 H        -6.7733341748        1.2015171162        0.4064851652
 H        -6.8741911704        0.6322957726        2.0802851253
 H       -13.6365398508       -1.3442668715        2.9775778179
 H       -13.3110835295        0.3919602046        2.6934298493
 H       -12.5803202693       -0.2394657901        4.0463227751
 H       -10.8415033095       -2.0031101133        3.8909036248
 H       -10.6338589304       -2.8839373623        2.3447040473
 H       -12.1963533733       -2.7832445983        3.0596267006
 H       -11.5064274354       -1.7495628145       -4.4845270339
 H       -11.0436909080       -0.4384088657       -5.6177344463
 H       -11.8302274486       -0.1543697105       -4.0403738720
 H        -9.3137972069       -2.7754017836       -3.5083184648
 H        -7.8878007742       -1.8262863521       -3.4498061776
 H        -8.6573925179       -1.9750254741       -4.9737364400
 H        -8.1676521921        4.9537138178       -6.2188638369
 H        -9.7151444041        5.7269196532       -5.9260149682
 H        -9.8150957895        4.0454625493       -6.3003763545
 H        -6.7541226229        5.3627649980       -4.5423646586
 H        -7.3534170344        5.3561558210       -2.8214959588
 H        -7.9988616278        6.4814617210       -3.9794031246
 H       -14.0041219697        6.5911640344       -0.9909957157
 H       -14.3932556033        7.9913473044       -2.0904775147
 H       -14.8203762373        8.0070231789       -0.3900258904
 H       -13.0331318601        9.9878221141       -1.9697514939
 H       -11.4600325515        9.9857540875       -0.9508029172
 H       -13.1939230642       10.0714842709       -0.2963064076
 H        -9.6075756929        9.0910277566        6.1922865133
 H        -7.9698183916        9.6356954166        5.8254695384
 H        -8.1798886022        8.0622915420        6.4176184752
 H        -7.5185822965        7.1453290084        2.9628527972
 H        -6.7438484028        7.4743025019        4.4753163723
 H        -7.0309242322        8.7949618104        3.3975720632
 Na       -8.5628632706        2.4856647306       -1.5791481858
