117

 C       -10.6709782323        7.1949784700        6.2938452379
 C        -9.8169848073        7.0890607131        5.0348469076
 O        -9.6008956256        6.0692077387        4.4013621374
 C        -9.1249255435        8.4014249153        4.5142337360
 C        -9.6979610451        8.8300951916        3.1529886815
 O       -10.1944799787        9.9056830268        2.9306774142
 C        -9.7121034418        7.7337577885        2.1270684442
 C       -10.2802080570        8.2435454716        0.7388020837
 C       -11.5635981326        7.4840046989        0.3131371390
 O       -12.0989439676        6.6223017481        0.9907678826
 C       -12.3298606173        8.1032020285       -0.9178602040
 C       -11.5343072525        7.9065883295       -2.2397148965
 O       -11.0903551804        8.7692184296       -2.9894781007
 C       -11.0582761124        6.4035516420       -2.4091262881
 C       -10.1937093821        6.2803041881       -3.7242043229
 C        -9.2402417995        5.0060977236       -3.7064570309
 O        -9.2411867313        4.4489979924       -2.6460946207
 C        -8.4817417947        4.4561926353       -4.8573668161
 C        -8.0781166293        2.9780463984       -4.6258958414
 O        -7.2987411918        2.6937800598       -3.6611222632
 C        -8.5270951874        1.9849283949       -5.6479686556
 C        -8.5057257304        0.5553765767       -5.1580759595
 C        -9.6412761872        0.3280368429       -4.1880471576
 O       -10.3761636072        1.2617532359       -3.8478261162
 C        -9.9427228995       -1.0919964725       -3.5531447076
 C        -9.9766392770       -0.8506494698       -2.0335121837
 O        -9.3175525721        0.0323486766       -1.4747866200
 C       -10.8104985642       -1.8378023008       -1.1724896244
 C       -10.6885061254       -1.7298085482        0.3420719351
 C       -11.7476014431       -0.9069650625        1.0978610519
 O       -12.5405135262       -0.1482126255        0.5363686296
 C       -11.5767676216       -0.7821196654        2.6138546960
 C       -10.4748589153        0.3375250034        2.6487888143
 O        -9.3010058368        0.0221570725        2.5044382883
 C       -10.9743307137        1.8072583256        2.8429259645
 C        -9.7596874961        2.8304126040        2.8362832915
 C        -8.8314949301        2.4203965846        1.6797149887
 O        -9.2684513955        2.2205354254        0.5513890694
 C        -7.2382754131        2.5464144438        1.8287432928
 C        -6.7145425336        3.6642625386        0.8668601029
 O        -7.0804421340        3.7479869134       -0.3067743453
 C        -5.9422380317        4.8518139120        1.4322023824
 C        -6.8577792040        2.7646840939        3.2602553489
 C        -6.4984336231        1.1978230331        1.4032761856
 C       -12.8038679121       -0.3205877736        3.2646120349
 C       -10.9872568346       -2.0115596510        3.3712001324
 C       -11.3098049969       -1.5369742163       -4.1326254174
 C        -8.9203382236       -2.1302213877       -3.9169050786
 C        -9.2240448952        4.7666014391       -6.2237406468
 C        -7.2009139986        5.2680480106       -4.7949352112
 C       -13.6497064251        7.4719839246       -1.0482711318
 C       -12.4802365618        9.6873164282       -0.5827742114
 C        -9.0966863801        9.5653029714        5.6226593654
 C        -7.5973214333        7.9270228963        4.2785482939
 H       -11.2326236860        6.2717617383        6.4553561051
 H       -11.4797255476        7.9287585647        6.0739037124
 H       -10.2587434666        7.5398992763        7.2876675282
 H       -10.3999201137        6.9145132031        2.3288961876
 H        -8.7143750755        7.3262496674        2.0064162953
 H        -9.5374715151        8.1882831398       -0.1169749736
 H       -10.5897433466        9.2939547525        0.8267258903
 H       -11.7367770725        5.5446704468       -2.3842890437
 H       -10.3930099709        6.0688504297       -1.5805613886
 H        -9.6653836800        7.1816711272       -3.9492128039
 H       -10.8859156097        6.2186417579       -4.5643940534
 H        -7.9248551438        2.1305304233       -6.5202027125
 H        -9.6167507732        2.0766895113       -5.9451826729
 H        -7.5502974787        0.2609352716       -4.7570165541
 H        -8.6476555635       -0.1603995641       -6.0250974941
 H       -10.5963024873       -2.8687710490       -1.4941542565
 H       -11.8517302495       -1.6472849757       -1.3758632561
 H        -9.7288144150       -1.2930968527        0.6560632957
 H       -10.6519842314       -2.7363671887        0.8715551023
 H       -11.5871109736        2.0018583544        3.7648851237
 H       -11.5846153658        1.8940833220        1.9775240130
 H        -9.2685399517        2.5682363587        3.7977122071
 H       -10.0146269524        3.8879104425        2.7904701885
 H        -5.3449113455        4.5281319259        2.2786744853
 H        -6.7519839529        5.5633988226        1.7241123389
 H        -5.2716633267        5.2772158566        0.5716431741
 H        -5.8307661416        3.0593499399        3.5083979224
 H        -7.0859667666        1.8683582104        3.8293366573
 H        -7.4540161313        3.5278288772        3.7811065717
 H        -5.4463570105        1.4963373722        1.2350481257
 H        -6.9507118488        0.7597799016        0.4762697493
 H        -6.3786437499        0.5497250154        2.2245414264
 H       -13.6388241286       -1.0097676082        3.3295440283
 H       -13.2283145071        0.5473528850        2.7714055928
 H       -12.5776708123       -0.0832662080        4.3173156459
 H       -10.4229378400       -1.7906439845        4.2500112138
 H       -10.2182317012       -2.4890382852        2.7032771312
 H       -11.7723818629       -2.6992615333        3.6558766309
 H       -12.0278514774       -1.5520094876       -3.3355264813
 H       -11.3182773838       -2.5829377551       -4.3952137367
 H       -11.7495359019       -1.0334476273       -5.0259904113
 H        -9.0057579205       -3.0747066859       -3.3656802096
 H        -7.8768936090       -1.8340271829       -3.7618679679
 H        -9.0438480835       -2.4491547589       -4.9941659680
 H        -8.6358095636        4.2921903810       -6.9894435548
 H        -9.3100069268        5.8195498787       -6.4868272822
 H       -10.1791825533        4.2727805037       -6.2663205361
 H        -6.5361912987        5.0565837435       -5.5979095704
 H        -6.6442981654        5.0461654915       -3.9499524413
 H        -7.4833502683        6.3164251930       -4.8142371868
 H       -13.5295194455        6.4137292038       -1.1518413236
 H       -14.1186369597        7.7486054508       -2.0171762727
 H       -14.2791874390        7.7315595289       -0.2065480663
 H       -13.1685512696       10.1963729670       -1.3418569205
 H       -11.6121740585       10.2931309573       -0.6401904638
 H       -12.8798829898        9.6362547035        0.4220226384
 H       -10.0212910395        9.8819737428        6.1428697952
 H        -8.6840861774       10.4222591932        5.0896091412
 H        -8.3939815709        9.3125047867        6.4391662324
 H        -7.5392880467        6.9849328809        3.7128992502
 H        -7.0447304818        7.7484608947        5.2369120360
 H        -7.1061102381        8.7118781065        3.6648405734
 Na       -8.7796732719        2.2686446447       -1.7329241578
