117

 C       -12.1105501066        2.2254474139       -4.9169180736
 C       -11.1264169186        3.3075763768       -4.5638716597
 O       -11.3336221276        3.9137747083       -3.5846168531
 C        -9.9063217689        3.5285400177       -5.6178744480
 C        -8.4684391052        3.7032923478       -4.9014183882
 O        -8.0113842347        4.8045130250       -4.6636554459
 C        -7.7294687135        2.4032820097       -4.4507667901
 C        -8.3305251103        1.7597668490       -3.1708709904
 C        -8.2456220668        2.6485723430       -1.8676986787
 O        -8.3226282336        3.8644361836       -1.9331176799
 C        -8.0115421573        1.9019019616       -0.5157031437
 C        -9.1898188828        0.8542781724       -0.2686968262
 O       -10.0622257833        0.7012177621       -1.1143998042
 C        -9.1968572881       -0.0588595767        1.0051747254
 C       -10.5770092051       -0.7179396683        1.3755205516
 C       -10.2785584729       -2.0731584656        2.0604638074
 O        -9.2775263665       -2.7152072464        1.7403685830
 C       -11.3029605037       -2.6781328504        3.0221616754
 C       -11.5386114635       -1.5579782318        4.1510583736
 O       -12.4600412806       -0.8048876135        4.1088184545
 C       -10.5204872151       -1.4658510136        5.3118912665
 C       -10.7013309922       -0.1791014249        6.1464281245
 C       -10.3851208472        1.1431873341        5.3299783254
 O        -9.7133362334        0.9330321913        4.3361038681
 C       -10.7231769503        2.5212959761        5.9814372710
 C       -11.1058046226        3.7629946679        5.2209936609
 O       -12.0218051959        4.4973294000        5.6120673730
 C       -10.2878908232        4.0263583387        3.9140363931
 C       -11.2144448950        4.4579041119        2.8028647619
 C       -10.5638055371        5.5681807178        2.0333021458
 O        -9.3982722852        5.8658043661        2.1377642445
 C       -11.6279456992        6.5056853398        1.1586947967
 C       -10.6979431572        7.0157884192       -0.0358487899
 O       -10.9515987768        6.6309923718       -1.1889215768
 C        -9.5623186658        8.0545953949        0.2760555195
 C        -9.3422736039        9.0602656927       -0.8874140869
 C        -8.7593888541        8.2463935902       -2.0889586571
 O        -8.2527896799        7.1374825348       -1.9953259784
 C        -8.9565485023        8.9095419999       -3.4720446251
 C       -10.4026734766        8.3699483618       -3.9966839086
 O       -10.7298622489        7.1992217737       -4.0356441304
 C       -11.1864009907        9.4712006182       -4.7454797806
 C        -8.9482619066       10.4709217934       -3.5481542843
 C        -7.9457969069        8.3030521495       -4.4707330891
 C       -12.9000176453        5.7924147211        0.6457023431
 C       -12.0442518897        7.6458130735        2.0103250701
 C       -11.8810121080        2.2585292116        6.9979349083
 C        -9.4339646685        2.8491250663        6.7611214129
 C       -12.5295033629       -2.9258788695        2.2123044373
 C       -10.7215340402       -4.0277356010        3.5600357950
 C        -6.6783508937        1.0195531601       -0.7934551003
 C        -8.0188242599        2.9371115089        0.6701698693
 C        -9.7657280519        2.3944737656       -6.6163233903
 C       -10.0752551331        4.8372202321       -6.4318165521
 H       -12.9087724584        2.1733381173       -4.1204436942
 H       -11.6859406663        1.2676373719       -4.9383692744
 H       -12.6443138696        2.2682546608       -5.8652394278
 H        -6.6872490154        2.7112709254       -4.2037365996
 H        -7.7389021639        1.6185009920       -5.2173067763
 H        -7.8857619680        0.7622182770       -3.0471219311
 H        -9.3466404629        1.4544012417       -3.2969671661
 H        -8.7722456135        0.4159031838        1.8787232578
 H        -8.4524561809       -0.8249307635        0.6330366542
 H       -11.1966155517       -0.9519380465        0.4621750874
 H       -11.2520507270       -0.0120771773        1.9690405169
 H        -9.4831414913       -1.7190819443        4.9591610732
 H       -10.8058609593       -2.3115120619        5.9745869832
 H       -10.1537771127       -0.2728459240        7.0725521826
 H       -11.7206265816       -0.1908003838        6.4698756840
 H        -9.7767218393        3.0644838949        3.7682687771
 H        -9.5690576975        4.7683099708        4.0628475508
 H       -12.1823535878        4.7905643496        3.1974579471
 H       -11.2725603917        3.6864147806        2.0437228661
 H        -8.6139003866        7.5757588980        0.4916806774
 H        -9.8525184414        8.5615399401        1.1971940277
 H        -8.6196956043        9.8882402275       -0.6749307721
 H       -10.2920467886        9.5729731526       -1.1873172630
 H       -10.6598968029        9.6808788637       -5.6514184438
 H       -11.3114097005       10.3929007706       -4.0648684883
 H       -12.1345087917        9.1700404487       -5.0198934633
 H        -9.8140783065       10.9207768390       -3.1018154126
 H        -8.9574316150       10.9197790458       -4.5075451732
 H        -8.0712929056       11.0443092512       -3.1637400746
 H        -8.0402164678        7.1895912509       -4.4924090641
 H        -6.9031630169        8.5671483909       -4.1765117538
 H        -8.0478233683        8.7867266139       -5.4832584067
 H       -12.7377793621        4.8716981244        0.0538913490
 H       -13.4864961162        6.4972839613        0.0877105207
 H       -13.5422724343        5.4596188156        1.4609912588
 H       -11.2204737399        8.1572745198        2.5034088018
 H       -12.7237797908        7.3666147376        2.7588772846
 H       -12.5147479344        8.4702557668        1.3637616086
 H       -12.0124536590        3.2128695989        7.5455842415
 H       -11.6851279331        1.3966097199        7.6310840284
 H       -12.7850341376        2.0519580943        6.4136877030
 H        -8.6108945321        2.7833904651        6.0572973019
 H        -9.3166096109        2.1141804219        7.5483695676
 H        -9.6200810825        3.7672150280        7.2474200892
 H       -13.2471334739       -3.5133722146        2.8298280820
 H       -12.3612724655       -3.4833009409        1.2515317124
 H       -13.1124897874       -2.0542023887        1.8341861271
 H        -9.8358269393       -3.8497283989        4.1667536739
 H       -10.5034823560       -4.5854561637        2.6961845121
 H       -11.4450000134       -4.4907596578        4.2133488472
 H        -5.9097932882        1.6312342782       -1.3774269187
 H        -6.9684900500        0.0633487559       -1.2452345777
 H        -6.1270106308        0.8201091767        0.1249735552
 H        -7.0662565381        3.4198234851        0.7846744257
 H        -8.1272016148        2.4074343673        1.5741718358
 H        -8.8736941361        3.6468228921        0.4651525537
 H        -9.7245593734        1.4162558136       -6.1750404183
 H        -8.8358230589        2.6577231577       -7.2084532925
 H       -10.6095017081        2.2946905531       -7.3211310550
 H       -11.0588989672        4.7531162543       -6.7468775782
 H        -9.4995121551        4.8532952746       -7.3164879732
 H        -9.9810333808        5.7104268627       -5.8858490486
 Na       -9.6618564191        5.4610529286       -2.9261405002
