117

 C       -11.3281800255        1.1712936774       -4.6723688480
 C       -10.8133992764        2.5803086095       -4.6177020797
 O       -11.2629060968        3.3580872784       -3.7629626246
 C        -9.7201123640        3.0694015438       -5.5802136240
 C        -8.5417719376        3.7804816048       -4.7369709725
 O        -8.3842538826        4.9850592903       -4.8251591975
 C        -7.5264925562        2.7414447573       -4.0855108892
 C        -8.0982725564        1.7059199829       -3.1542697121
 C        -8.5027939605        2.4158358925       -1.8193915950
 O        -9.1029866738        3.4711779282       -1.8930652325
 C        -8.1327465437        1.7454416946       -0.4680971894
 C        -8.7855799529        0.2737079360       -0.4458463823
 O        -9.1448444448       -0.2531260677       -1.4692678482
 C        -8.8484411275       -0.4431665590        0.9401809682
 C       -10.1452427985       -1.2454589158        1.1189521825
 C       -10.2282680096       -2.0058905523        2.4777983011
 O        -9.2227051495       -2.3786436779        3.0259401979
 C       -11.6940865525       -2.2804644012        3.1959583928
 C       -11.8247360110       -0.9936322152        4.0646353717
 O       -12.1307326070        0.0567046909        3.5495993656
 C       -11.3192313025       -1.1026377607        5.5770867783
 C       -11.1859291251        0.3005325589        6.1940110790
 C        -9.9534841620        1.1321494942        5.7167314644
 O        -9.1519272391        0.7285075133        4.8997510890
 C        -9.8383666995        2.6477038080        6.1726311313
 C       -10.8057613877        3.4174916962        5.1577233190
 O       -12.0056133389        3.3640763504        5.3541931278
 C       -10.1975212319        4.2592702706        4.0002606973
 C       -11.2261267721        4.6219771932        2.9527327091
 C       -10.7022025859        5.8733875301        2.1283631389
 O        -9.5560918318        6.3174039025        2.2306450670
 C       -11.6386737387        6.7478699613        1.1632188854
 C       -10.7395407251        6.9060686750       -0.1280297063
 O       -10.8727477391        6.1730020364       -1.0777701439
 C        -9.6758476295        8.0719826523       -0.0170095176
 C        -9.6233472372        9.0590096672       -1.1896389799
 C        -9.0246804217        8.4011374296       -2.4470934286
 O        -8.5614581455        7.2842120420       -2.4063232206
 C        -9.4698835725        9.1231507068       -3.8125052377
 C       -10.8738179708        8.5656940116       -4.2966580644
 O       -11.1772343873        7.4017653144       -4.2075969647
 C       -11.7489477212        9.5184702158       -5.0830338025
 C        -9.5086790209       10.6199651492       -3.6291181120
 C        -8.4109261765        8.7618201788       -4.9217174228
 C       -12.8623089764        5.9086161942        0.7603941991
 C       -11.9909527464        8.1137965598        1.8665861110
 C       -10.3369519494        2.8228851611        7.6660296132
 C        -8.4166659821        3.1154992161        5.9535328806
 C       -12.7966009289       -2.4607522435        2.1177047872
 C       -11.5913640688       -3.5287666100        4.0707338747
 C        -6.5005358812        1.4846896044       -0.4785024042
 C        -8.4896478375        2.7041931455        0.7368895652
 C        -9.0879916107        2.0212274688       -6.4790055515
 C       -10.4283344380        4.1686626903       -6.3672160128
 H       -11.7592164044        0.8496675656       -3.6866740177
 H       -10.4885660404        0.4640325803       -4.9411244981
 H       -12.1286172604        0.9295149905       -5.3209459332
 H        -6.6801879329        3.2552668897       -3.6030805171
 H        -6.9985902240        2.1922641085       -4.9181656811
 H        -7.3272572882        0.9410118366       -3.0299239330
 H        -8.9752679746        1.2582080617       -3.6430406651
 H        -8.6901264286        0.2825259908        1.7862874419
 H        -7.9725702779       -1.1386908136        1.0807604270
 H       -10.1971895999       -1.9990976111        0.2885499229
 H       -11.0629169804       -0.6516964022        1.0029621632
 H       -10.2807052735       -1.5915843602        5.5716847971
 H       -11.9165143177       -1.7979674908        6.1699501125
 H       -11.1913359169        0.0965828552        7.2821349590
 H       -12.0589846280        0.9073869718        5.9097729990
 H        -9.4762805177        3.5842487840        3.5570721092
 H        -9.6764877385        5.1413994436        4.3982698303
 H       -12.1527550689        4.9495289549        3.3958546243
 H       -11.4965817880        3.7553515201        2.2739544400
 H        -8.6725713922        7.6416315017        0.0832114398
 H        -9.8762263985        8.6271944384        0.8512494042
 H        -9.0187157036        9.9311963745       -0.8366548816
 H       -10.6522479212        9.4591930891       -1.4127581238
 H       -11.9318728304       10.4410298190       -4.4823579708
 H       -12.6600909933        8.9832677184       -5.2912326191
 H       -11.2238219702        9.7575546817       -6.0250428950
 H       -10.4283374794       10.9364232966       -3.1016988494
 H        -9.5035720393       11.1533972059       -4.6093182630
 H        -8.7526350849       10.9388449671       -2.9567790541
 H        -8.4780394923        7.7075268646       -5.0637503794
 H        -7.4581077115        9.0448477088       -4.5477625662
 H        -8.6826541779        9.2438992444       -5.8167855573
 H       -12.5603551383        5.0252070474        0.2098941151
 H       -13.4621924521        6.5770653755        0.1046289113
 H       -13.4795979952        5.6505174611        1.6558025777
 H       -11.2010029307        8.5002595029        2.5201982741
 H       -12.9663920184        7.9782324620        2.4002516837
 H       -12.2799805970        8.8254454374        1.1654890861
 H       -10.4281279906        3.8578378863        7.8713706176
 H        -9.5700419388        2.5063928941        8.3519465005
 H       -11.3067638669        2.3904287992        7.8252464760
 H        -8.0680614161        2.8147605963        4.9598212930
 H        -7.7392858211        2.8052618562        6.7683266604
 H        -8.3876460187        4.2550488641        5.9321036267
 H       -13.7210406979       -2.7291583538        2.6249583386
 H       -12.5750907385       -3.2440677721        1.3948118730
 H       -13.0438616063       -1.4718616243        1.7110530599
 H       -10.7611499923       -3.4661384958        4.7518972712
 H       -11.4610400963       -4.4557855059        3.4649888770
 H       -12.5552061905       -3.6693184986        4.5373503053
 H        -6.0626776695        2.3603155012       -0.8499228388
 H        -6.1457077791        0.6125480146       -1.0357225649
 H        -6.2929095721        1.3277370849        0.5762522963
 H        -7.9935853424        3.6798681010        0.5193381557
 H        -8.1180883180        2.2175917570        1.6937833192
 H        -9.5366137925        2.9269537149        0.8310199191
 H        -8.5864739021        1.1541566075       -5.9788246547
 H        -8.2652500879        2.5083721597       -6.9744705328
 H        -9.7404681395        1.7879220905       -7.3083000558
 H       -11.2003919056        3.6849810274       -6.9064477400
 H        -9.7443604751        4.7039695546       -7.0930699509
 H       -10.8796412417        4.8470656780       -5.7387763962
 Na       -9.9272438125        5.4423899434       -3.1357084820
