117

 C       -11.3008810909        1.2083426920       -4.4950046139
 C       -10.8254988363        2.5902030047       -4.5350696637
 O       -11.2317084728        3.3256230530       -3.6486020550
 C        -9.6565252767        3.0292397734       -5.6032467919
 C        -8.4213022247        3.7974929936       -4.7930113775
 O        -8.3035691404        5.0356753617       -4.8711373033
 C        -7.4018265302        2.9410134683       -4.0576148118
 C        -8.0984739053        1.7669056260       -3.1626316211
 C        -8.5088873284        2.4080822636       -1.8403101662
 O        -9.0495589176        3.4920413691       -1.7667086199
 C        -8.1735200205        1.6876204268       -0.4261985561
 C        -8.8142008976        0.2129357757       -0.3232423785
 O        -9.1930501524       -0.3928982439       -1.3090725852
 C        -8.7776998841       -0.4599860413        1.0367037378
 C       -10.0995652471       -1.1579796383        1.1863714596
 C       -10.1618162943       -1.9304842193        2.4983737329
 O        -9.2064102742       -2.2772063615        3.1444560761
 C       -11.5636010775       -2.1346545329        3.0905371649
 C       -11.7381402828       -0.8590143083        3.9681403174
 O       -12.0869872980        0.1684422463        3.3650143694
 C       -11.3750901938       -0.8682827172        5.4703630070
 C       -11.3048812203        0.5481526073        6.1098096776
 C        -9.9360066155        1.1261670805        5.7230020043
 O        -9.0338625068        0.5401420633        5.1767518847
 C        -9.6690056982        2.7014196952        6.0834649871
 C       -10.6879878929        3.3962792337        5.1467160638
 O       -11.8626745658        3.1847766961        5.2952224757
 C       -10.2045232539        4.3068487815        3.9928457071
 C       -11.3845369142        4.8819447930        3.2381044743
 C       -10.7593132788        5.9085877715        2.2491433245
 O        -9.6208671735        6.2588441836        2.3117355509
 C       -11.7234816420        6.7158399396        1.1591433575
 C       -10.6791750738        6.8408905435       -0.0244881817
 O       -10.7819660573        6.0476506336       -0.9767837454
 C        -9.5604954662        7.8917989251        0.0154085562
 C        -9.6956534088        8.9100307478       -1.2067678329
 C        -9.1666864122        8.3315789272       -2.5352226648
 O        -8.4254782657        7.3731787924       -2.6022323581
 C        -9.5884756095        9.0159872540       -3.8871426397
 C       -10.9319794225        8.4678021033       -4.3938510483
 O       -11.2395872830        7.3131071134       -4.1868735640
 C       -11.9137703274        9.3167544013       -5.2548444101
 C        -9.6165559164       10.5532868285       -3.7002659717
 C        -8.5205111091        8.6404576305       -4.9426756631
 C       -12.9930608650        5.9678936933        0.7324613542
 C       -12.2091674373        8.1179707369        1.6977175584
 C       -10.0323660045        3.0910291584        7.5205721338
 C        -8.1485984456        2.9572457197        5.9407972817
 C       -12.6826425364       -2.1802477411        2.0342022958
 C       -11.6545785004       -3.4810945192        3.8964443531
 C        -6.6397981860        1.5928201713       -0.4037185715
 C        -8.7733177488        2.5852897725        0.6821414104
 C        -9.0808594333        1.8193301371       -6.3459802700
 C       -10.2910749169        4.0194632646       -6.5829061561
 H       -11.5486680044        0.9743553099       -3.5109873468
 H       -10.7522208903        0.4230723930       -4.9243412750
 H       -12.3175627870        1.1174489078       -4.9912999002
 H        -6.7856160886        3.6104548949       -3.4526523887
 H        -6.6825726261        2.5791247740       -4.7598920284
 H        -7.4414251194        0.9325964268       -2.9432439402
 H        -8.9616199631        1.4118317293       -3.6863070064
 H        -8.6661450039        0.2373714351        1.8194303055
 H        -7.8914110943       -1.0666146759        1.0810176460
 H       -10.2960040853       -1.7411947388        0.2571391491
 H       -10.8960556597       -0.3609367123        1.1905935731
 H       -10.4144627265       -1.3268099083        5.4916413259
 H       -12.0373041288       -1.5539042987        6.0198491149
 H       -11.3618346075        0.3986403511        7.1679231648
 H       -12.1474155653        1.1560037310        5.7846942380
 H        -9.5322714478        3.8350196257        3.2523419180
 H        -9.6748012892        5.0489434399        4.5532984277
 H       -12.0923513720        5.4590302149        3.8894006806
 H       -12.0142562130        4.1697565664        2.7778463472
 H        -8.6050920820        7.3190191038       -0.0741598578
 H        -9.5791606146        8.4539879775        1.0072370536
 H        -9.2025772723        9.8601306427       -1.0100833950
 H       -10.7489476062        9.1194949732       -1.3067854342
 H       -12.7183975306        9.5626018832       -4.6434829368
 H       -12.2163108721        8.7530925835       -6.1007252520
 H       -11.3685085276       10.2046871224       -5.6693927584
 H       -10.2419761769       10.9020035238       -2.8647662965
 H        -9.9549757083       11.0077785681       -4.6227074865
 H        -8.5524156712       10.8834032719       -3.4678045286
 H        -8.3810316076        7.5418217150       -4.9187770462
 H        -7.6246496713        9.2034952702       -4.5801171970
 H        -8.8755572967        8.9859920470       -5.9508247523
 H       -12.6089974307        5.0969897194        0.1444016452
 H       -13.6079892102        6.6029238905        0.1178240501
 H       -13.5245184740        5.5628993283        1.5756877185
 H       -11.3883277122        8.6350863453        2.1684159374
 H       -13.0379892740        8.0318749092        2.3370086833
 H       -12.6088327707        8.7439547711        0.8255990649
 H        -9.8471368293        4.1668878859        7.7546811508
 H        -9.3043238996        2.6033314523        8.1691753850
 H       -11.0467173932        2.8408046357        7.7863661642
 H        -7.7485765115        3.1160697515        4.9368843074
 H        -7.6474250416        2.1053395479        6.4233109296
 H        -7.8379695482        3.7730341409        6.5476482977
 H       -13.7445849780       -2.1884780970        2.4371727836
 H       -12.5005137045       -3.1557579021        1.5002218108
 H       -12.6256329224       -1.3305202417        1.3586253606
 H       -10.6230067282       -3.7113791249        4.1667759239
 H       -11.9912409498       -4.2273280186        3.2504738543
 H       -12.2998043576       -3.5405092486        4.7653743061
 H        -6.2542388343        2.6525476364       -0.1888380809
 H        -6.3452020039        1.2013012569       -1.3800267196
 H        -6.2897173639        0.8597177090        0.3276438034
 H        -8.5860741823        3.6353597919        0.5167755532
 H        -8.3813158166        2.2586208110        1.6307494095
 H        -9.8827271112        2.4378870542        0.6649681048
 H        -8.5661452890        1.1517344784       -5.6831723638
 H        -8.3397911172        2.0485801059       -7.1474619871
 H        -9.9304252831        1.3204602558       -6.8808218425
 H       -10.7791581744        3.5166884978       -7.4093095332
 H        -9.5217799312        4.5613725671       -6.9952610638
 H       -10.9433877719        4.7728253685       -6.0931695491
 Na      -10.1721010299        5.4339448645       -3.0734363547
