117

 C       -11.8056195512        1.3140640000       -4.7205254541
 C       -10.7854095071        2.4376470566       -4.4433059796
 O       -11.1679903717        3.3422435979       -3.7220682933
 C        -9.4943606142        2.5162421800       -5.3217953216
 C        -8.4131446974        3.6380940890       -4.6318835047
 O        -8.6698322243        4.8808867931       -4.6447310414
 C        -7.1195073161        3.1685669001       -3.9885486751
 C        -7.3900179969        2.1023428827       -2.8228968268
 C        -8.0551437750        2.8572433952       -1.6534168955
 O        -8.3067572779        4.0285021268       -1.7683846190
 C        -8.1499213688        2.0650122621       -0.3018950246
 C        -8.6780329733        0.4897170109       -0.4407639875
 O        -9.0011626884        0.1146999349       -1.5370162483
 C        -8.6919214942       -0.3812251118        0.8248876870
 C       -10.1941834953       -0.7463588610        1.1045639086
 C       -10.3083114078       -1.7604536865        2.1888744885
 O        -9.4321629402       -2.5805715210        2.3010922636
 C       -11.5276861449       -1.8067182247        3.0941572387
 C       -11.4669267969       -0.5473741540        4.0589152680
 O       -11.4265048914        0.5609346478        3.5187170425
 C       -11.6648393697       -0.5876502915        5.5673408032
 C       -11.3175986154        0.8210847176        6.1835859085
 C        -9.9108690455        1.2225272554        5.8555861956
 O        -9.1577489716        0.3455899052        5.4267072847
 C        -9.3604847677        2.7197529274        6.0299017679
 C       -10.3757038127        3.7933341042        5.3982555841
 O       -11.4890190316        3.8072851993        5.8895288890
 C       -10.0183916504        4.7227604475        4.1965613693
 C       -11.1601926916        5.6031480359        3.7126907121
 C       -10.6733592486        6.3351175672        2.4780343127
 O        -9.6234296701        6.9614419571        2.5081381271
 C       -11.7387101505        6.6063889525        1.2676620983
 C       -11.0169767749        6.5163305033       -0.0958162454
 O       -11.3265250201        5.6254223988       -0.8846299754
 C        -9.8985625071        7.5213212507       -0.3699375695
 C       -10.1928121030        8.4149843572       -1.6768984019
 C        -9.3983123655        7.9733687525       -2.8791576064
 O        -8.3801754338        7.3074251222       -2.8375498664
 C        -9.9172646815        8.5773673426       -4.2988622629
 C       -11.2254583651        7.7795896143       -4.6985959457
 O       -11.3374228840        6.6577838424       -4.2843139172
 C       -12.3594111288        8.3191996210       -5.6054136762
 C       -10.2152691166       10.1346724487       -4.2214760928
 C        -8.9214225103        8.2136739988       -5.4804004433
 C       -12.8970571129        5.5927022410        1.3646783620
 C       -12.3998458942        8.0861336500        1.5979331282
 C        -9.3285954557        3.0501773842        7.5606427408
 C        -7.9446040298        2.7339879681        5.4523640375
 C       -12.7709885533       -1.8113232377        2.0689066144
 C       -11.5612077593       -3.1133794240        3.8765090933
 C        -6.7185621437        2.0763098698        0.2373318833
 C        -9.2358316143        2.7452436665        0.5335362967
 C        -8.8321900429        1.1539786198       -5.6385966562
 C       -10.0546467422        3.1605472042       -6.6751548904
 H       -12.8222273196        1.7579023749       -4.6619426190
 H       -11.9571650864        0.5585009969       -3.9116786720
 H       -11.6770747547        0.7611495286       -5.6291646251
 H        -6.5150153499        4.0860198836       -3.6875748583
 H        -6.6830789696        2.6327451395       -4.8601220174
 H        -6.4621324505        1.6623966481       -2.3966477950
 H        -7.9480793515        1.2423738520       -3.1689405475
 H        -8.1996285773        0.0472554710        1.6282924054
 H        -8.3081048040       -1.3947696860        0.5452451896
 H       -10.5456118991       -1.3041788696        0.1983869731
 H       -10.8174673458        0.1778462181        1.2972945164
 H       -11.0244930096       -1.4026431477        6.0286446588
 H       -12.7408697041       -0.8032587017        5.7591322301
 H       -11.4315139330        0.6699076365        7.2664997801
 H       -12.1248561604        1.4749476835        5.9217890955
 H        -9.7254679117        4.0665725348        3.3755560591
 H        -9.1163964793        5.2263351237        4.3447171418
 H       -11.5428029599        6.3841120985        4.4325684491
 H       -12.0306413585        5.0448450054        3.3893501329
 H        -8.9151751732        7.0356860478       -0.3851384728
 H        -9.9205682144        8.2717383814        0.3795610882
 H        -9.7631159638        9.4537979979       -1.5303240330
 H       -11.2812534986        8.5887390177       -1.7911283167
 H       -12.5402492559        7.5136158187       -6.3534606650
 H       -12.1519899955        9.2703582035       -6.0386177431
 H       -13.2339151098        8.4109321115       -4.9317218379
 H       -11.1125111280       10.2776280925       -3.6651844673
 H       -10.3370285181       10.4354853037       -5.2801824955
 H        -9.3073736608       10.5953783081       -3.8224146347
 H        -8.7195378846        7.1956276453       -5.2988366830
 H        -7.9992486556        8.7647889872       -5.3437906912
 H        -9.3607471910        8.4449393826       -6.4107919851
 H       -12.4062095610        4.6136197342        1.2170491389
 H       -13.5347712488        5.7261333830        0.5209759907
 H       -13.5058958648        5.7648396470        2.2402282346
 H       -11.7010022722        8.9164883182        1.7073354146
 H       -12.9055273410        7.9681349253        2.5317907477
 H       -13.1166302804        8.3296308761        0.7810576849
 H        -8.7027513092        3.9534223138        7.8060917137
 H        -9.0247665405        2.1601011179        8.1137213691
 H       -10.2766403122        3.2687160095        7.9934456854
 H        -7.7269486502        2.3799838489        4.4456960790
 H        -7.2295122402        2.1821487390        6.0809821546
 H        -7.4613234166        3.7266188565        5.4628512535
 H       -13.6629396105       -2.0016243613        2.6518986806
 H       -12.5330031511       -2.5687321873        1.3659783055
 H       -12.8298937821       -0.9222959453        1.5511789219
 H       -10.5819486044       -3.3246046521        4.3619183306
 H       -11.5216513439       -3.8268944862        3.0780978893
 H       -12.3222423831       -3.3562741364        4.6729239014
 H        -6.3998102219        3.1219468249        0.3753752833
 H        -6.0783930926        1.6134769315       -0.4946969809
 H        -6.6779854146        1.5331446730        1.1716511929
 H        -9.2115858549        3.8168717066        0.4924918788
 H        -9.0435004489        2.4137360896        1.6158037000
 H       -10.2126847187        2.3936106737        0.2764799564
 H        -8.6393661715        0.4693038471       -4.8081951380
 H        -7.9838457961        1.3366088535       -6.2097945299
 H        -9.4679437010        0.5606511448       -6.3370430212
 H       -10.5781977234        2.4198411969       -7.2405538703
 H        -9.1635719945        3.4736056750       -7.3349363009
 H       -10.7015862833        3.9530384813       -6.5162051228
 Na      -10.2693429458        5.2828590599       -2.8911079342
