117

 C       -11.4176405982        1.4048758545       -4.4573899802
 C       -10.6403761771        2.6490023926       -4.5268316951
 O       -11.0388320311        3.5328943608       -3.8023980143
 C        -9.5855617199        2.8597777256       -5.6034291263
 C        -8.4697559334        3.6341945664       -4.8400868472
 O        -8.5874726326        4.8164823028       -4.7705773452
 C        -7.3822614625        2.8823787587       -4.0955452414
 C        -7.7971749583        1.9433746659       -3.0113590528
 C        -8.4853322946        2.5929884284       -1.6676842169
 O        -9.1766921256        3.6184785949       -1.7093061892
 C        -8.1995303613        1.7998904515       -0.3636745538
 C        -8.7077917292        0.3064542418       -0.4126201567
 O        -9.1491091990       -0.2120103653       -1.4285621332
 C        -8.5712344105       -0.5972661645        0.8501784184
 C        -9.9961166872       -0.9861774100        1.2686972217
 C       -10.1251392616       -1.8871126418        2.4741165905
 O        -9.2075605979       -2.3312126705        3.1565853823
 C       -11.5761053770       -1.9863024659        3.0850033230
 C       -11.7487561493       -0.6621280627        3.8775980849
 O       -12.0567982332        0.3490792257        3.3445482867
 C       -11.5260591560       -0.7708924214        5.3596849963
 C       -11.2356137374        0.5380844584        6.0957730828
 C        -9.7955283907        1.0299215295        5.7604312538
 O        -8.8473637155        0.3151616611        5.5082244189
 C        -9.5956602279        2.7007664157        5.9813516409
 C       -10.5990312791        3.4550472082        5.1282780061
 O       -11.8080506406        3.3402454095        5.3359758742
 C       -10.1952390058        4.3986135213        4.0602599561
 C       -11.3456253036        5.2101858540        3.4692726828
 C       -10.7937203359        6.1367126093        2.3723144019
 O        -9.5958848516        6.4561697532        2.3661610569
 C       -11.7113414050        6.6473075908        1.2324634375
 C       -10.8052104553        6.7229554851       -0.1044629552
 O       -10.9923244091        5.8979101970       -0.9396763822
 C        -9.6037813064        7.7266176432       -0.1820958227
 C        -9.8041809871        8.7533934525       -1.2880013746
 C        -9.3006277805        8.1974774210       -2.6321677990
 O        -8.5277650935        7.2419598850       -2.6565854259
 C        -9.6849530538        8.8953905046       -3.9794674706
 C       -11.0046366827        8.2716740825       -4.4568825519
 O       -11.2566707281        7.0997938555       -4.1204798627
 C       -11.9577637779        9.0454833704       -5.3096640720
 C        -9.7428349183       10.4274232258       -3.8029341759
 C        -8.6609786369        8.5827299611       -5.1105938483
 C       -12.9486239148        5.7055506957        0.8142190646
 C       -12.1561561433        8.1283885850        1.6762885661
 C        -9.9200045322        3.0186072967        7.5049471108
 C        -8.1613534876        3.0335288858        5.5515910345
 C       -12.6979587722       -2.1219912522        1.9781550201
 C       -11.6856934774       -3.2512803692        3.9587284540
 C        -6.6784007855        1.7968216994        0.0016028175
 C        -8.9323143547        2.4677810769        0.7792533802
 C        -9.1048081977        1.6148165021       -6.4438787023
 C       -10.2590798868        3.9095555871       -6.5433387730
 H       -11.8360663728        1.2008555097       -3.4062963534
 H       -10.8781297527        0.4735841975       -4.7430745486
 H       -12.2135224740        1.4048881249       -5.1247459292
 H        -6.8072267608        3.6554951511       -3.5966029694
 H        -6.5870261586        2.4347024925       -4.7310508452
 H        -6.8537659788        1.4551321046       -2.7119893141
 H        -8.4972286695        1.1458162796       -3.3920228932
 H        -8.1064757670       -0.0330258605        1.7451775053
 H        -7.8719891022       -1.4092788691        0.5568204563
 H       -10.5718188951       -1.2790273473        0.4333412428
 H       -10.4338092305       -0.0940843815        1.6457127412
 H       -10.6701567552       -1.4800698481        5.5251703965
 H       -12.4246376594       -1.2740864615        5.7322259569
 H       -11.3383581596        0.2913801545        7.1906396171
 H       -12.0560771452        1.2404921097        5.8060415206
 H        -9.7414024072        3.8064099445        3.2429057022
 H        -9.4165680222        5.0750927755        4.5408102908
 H       -11.6555154536        5.8200159621        4.3031938774
 H       -12.3121268299        4.7365488235        3.1525233410
 H        -8.7414556874        7.1672512634       -0.4703345238
 H        -9.4376813351        8.2412018203        0.7259734551
 H        -9.2933886168        9.6826568284       -1.0484887106
 H       -10.8705725659        8.9951726339       -1.3349740595
 H       -12.9779221313        8.8188882530       -4.8185123385
 H       -11.8972878871        8.6658191934       -6.3965429441
 H       -11.6953570487       10.0487614120       -5.4005545277
 H       -10.6716725621       10.7622720221       -3.2861889451
 H        -9.6799280262       10.9128213751       -4.7845495562
 H        -8.8335612088       10.6864651205       -3.3072265504
 H        -8.6113823329        7.5048516509       -5.2147508875
 H        -7.7411723365        9.0392008202       -4.8383567429
 H        -9.0517774124        9.0573978745       -5.9905794404
 H       -12.5818909331        4.7428655569        0.7501540185
 H       -13.3135642354        6.0883222142       -0.1411774043
 H       -13.6859946924        5.6560487059        1.6029446413
 H       -11.2596807102        8.7659822132        1.6742416388
 H       -12.5650995309        8.1263866146        2.7387631253
 H       -12.8564192675        8.5368181786        1.0090620027
 H        -9.4367382057        3.9072416821        7.8726178685
 H        -9.5715656993        2.1991357903        8.1744141540
 H       -11.0431074471        3.1093957852        7.6666534549
 H        -8.0188113871        2.8340725892        4.4788025377
 H        -7.5032686273        2.2853579952        5.9780865497
 H        -7.6877904509        3.9997542579        5.7870423010
 H       -13.5385055934       -2.6027116282        2.3541376206
 H       -12.3020264914       -2.6935010225        1.1721699539
 H       -12.9636212291       -1.1053511077        1.6416563906
 H       -10.8453783727       -3.3721213099        4.6481960311
 H       -11.8107174548       -4.1715890865        3.2792761887
 H       -12.6101522301       -3.2163919595        4.5586170262
 H        -6.3972428566        2.7590132096        0.2784777382
 H        -6.1522319055        1.2750751693       -0.7980238059
 H        -6.5677282454        1.1736531910        0.8912200716
 H        -8.8359825615        3.5502980762        0.6663656515
 H        -8.5213008352        2.2138850614        1.7390968468
 H        -9.9536374428        2.2188040107        0.6798233938
 H        -8.4388812299        0.9472144513       -5.8816457523
 H        -8.4841843690        2.0480285856       -7.2059505890
 H        -9.8407805474        1.0206459198       -6.8839976816
 H       -11.1891473042        3.4690832989       -7.0188000388
 H        -9.5741961988        4.2811364432       -7.3826290542
 H       -10.4943839600        4.8077133836       -5.9295031395
 Na      -10.0894646099        5.4669712767       -3.0504830536
