117

 C       -11.4599573643        1.1823457228       -4.4271871686
 C       -10.6949920463        2.5584319912       -4.5091893695
 O       -11.0259795186        3.4966382422       -3.7895935480
 C        -9.5695303202        2.9563543659       -5.5853763034
 C        -8.4137433132        3.7303722749       -4.7998449395
 O        -8.4282521865        4.9985247614       -4.8328057926
 C        -7.3954021947        2.9401766621       -4.0367728972
 C        -7.9135591295        1.9216373963       -3.0709035046
 C        -8.5323768793        2.4842998631       -1.7932223797
 O        -9.0927477448        3.5354997825       -1.7936406182
 C        -8.2498029392        1.7030236546       -0.4360027995
 C        -8.7037491227        0.2269367147       -0.3846896418
 O        -9.1888330266       -0.3018380762       -1.3457401865
 C        -8.6772266358       -0.4379415017        1.0087894440
 C       -10.0708912057       -1.0396074337        1.3107994448
 C       -10.1216716586       -1.8888799126        2.6202036434
 O        -9.0937917123       -2.2917376376        3.1126356702
 C       -11.5979811858       -2.1360661109        3.0832816391
 C       -11.8175420103       -0.7676819030        3.8706458062
 O       -12.0945624650        0.2317883952        3.1991782296
 C       -11.4313819395       -0.8227410061        5.3919184250
 C       -11.2206141449        0.5759955185        6.0821358918
 C        -9.8553707652        1.1273639246        5.8636725498
 O        -9.0125450078        0.4288547261        5.3366283496
 C        -9.5617168835        2.6011548940        6.0699065978
 C       -10.6380817027        3.3947559667        5.1225103062
 O       -11.8054965778        3.2020635073        5.3415314981
 C       -10.1901163764        4.4122039470        4.0056680579
 C       -11.3627928746        5.0970681730        3.3467651731
 C       -10.8705532181        6.0752117031        2.3280962921
 O        -9.6698234039        6.3201896802        2.3124621896
 C       -11.6783984717        6.6998097714        1.1409384944
 C       -10.6680212206        6.7825616324       -0.0403496965
 O       -10.8631363127        5.9801235961       -0.9513107261
 C        -9.5865554993        7.8066385151       -0.0168550086
 C        -9.7560686622        8.7025031483       -1.2345644780
 C        -9.1259426834        8.2522968349       -2.5640424279
 O        -8.4497668445        7.2614372052       -2.5939501022
 C        -9.5544536621        9.0592691466       -3.9035845353
 C       -11.0201849528        8.4004100659       -4.3823805409
 O       -11.2444428919        7.2517467094       -4.2051388786
 C       -12.0119487410        9.1419106176       -5.3456099276
 C        -9.7134198692       10.6092292161       -3.7645371136
 C        -8.5921392932        8.5579904274       -5.0144120975
 C       -12.9488393960        5.8975588741        0.7390463836
 C       -12.1809249176        8.0544659563        1.6904359222
 C       -10.0174671878        3.0755515480        7.4872689352
 C        -8.1086520920        2.9879874136        5.7149602776
 C       -12.7503073619       -1.9888526201        2.0292675829
 C       -11.6479845834       -3.4313797065        3.9453581800
 C        -6.6592224853        1.6501267992       -0.2828071862
 C        -8.9123155383        2.4722512890        0.8377876195
 C        -9.1536652548        1.7439839049       -6.3973902056
 C       -10.2604937536        3.9630772289       -6.5658970987
 H       -11.7680731651        0.9072775930       -3.4483896959
 H       -10.9648094032        0.2995909005       -4.8574931555
 H       -12.3881679432        1.2244872834       -5.0077219653
 H        -6.6869621618        3.6161285237       -3.5736991438
 H        -6.7645905782        2.4480278403       -4.7528669910
 H        -7.1697267128        1.0940938167       -2.9174495233
 H        -8.7868855152        1.4913587408       -3.5684747175
 H        -8.3546041441        0.2235180338        1.7548322963
 H        -7.8637436816       -1.2300912366        0.9563296009
 H       -10.1607819119       -1.7672026103        0.5511194017
 H       -10.8572256338       -0.3456483249        1.1291528395
 H       -10.4945671103       -1.4675120883        5.3941126955
 H       -12.1654954066       -1.3634079266        5.8933571559
 H       -11.3360246613        0.3597510344        7.1892741116
 H       -12.0686514190        1.1705121694        5.7838523414
 H        -9.7698745051        3.7648574304        3.1517698528
 H        -9.4165907214        5.0418001449        4.4551864283
 H       -11.9844893127        5.6088439340        4.0841056880
 H       -12.0722437892        4.4213129550        2.8786541229
 H        -8.6388784731        7.2272159531       -0.1985922824
 H        -9.5352486675        8.3716093892        0.8718677266
 H        -9.3040855741        9.6428283661       -1.0086263331
 H       -10.7955031514        8.8995916803       -1.3453892502
 H       -12.9496985280        9.1335542699       -4.7618442613
 H       -12.0872057914        8.5972019013       -6.2585518498
 H       -11.6591440016       10.1764734718       -5.6637069402
 H       -10.5259814432       10.8898453979       -3.1014295568
 H        -9.9085133640       11.0174812485       -4.7929858623
 H        -8.7665781033       11.0229253301       -3.4151155331
 H        -8.6094577619        7.4655365742       -4.8873726001
 H        -7.5849482180        9.0009282668       -4.7792420206
 H        -8.9735977277        8.8489135598       -6.0073098549
 H       -12.5754565567        4.9348899434        0.4036513974
 H       -13.5298567603        6.4029927113        0.0142980444
 H       -13.4562841817        5.6555882002        1.6407833147
 H       -11.3343789678        8.7036024672        1.9348642641
 H       -12.8081341871        7.9144756854        2.5801803231
 H       -12.8108248142        8.5313385927        0.9382341390
 H        -9.6370583871        4.0978826053        7.7800042521
 H        -9.6371575348        2.4264561064        8.3138141133
 H       -11.1042125171        3.0702352513        7.5201455046
 H        -7.8780954464        3.1482493427        4.6878598158
 H        -7.4494498576        2.1974666049        6.0569218637
 H        -7.7760278201        3.8403969562        6.2864747692
 H       -13.7885503644       -2.1544089530        2.3709341033
 H       -12.5129349429       -2.7163727071        1.2536219847
 H       -12.6622985991       -1.0197534830        1.6316529979
 H       -10.6242466148       -3.5618123136        4.3293143763
 H       -11.9391281506       -4.2906514221        3.3636296148
 H       -12.3422277561       -3.4086826789        4.8173361564
 H        -6.3296836978        2.6128910164        0.1120136263
 H        -6.1964490299        1.2810077805       -1.2031550210
 H        -6.4704167167        0.8631472016        0.4790150417
 H        -8.6811895679        3.5081569535        0.8139081719
 H        -8.4854231019        2.0624183660        1.7794842388
 H        -9.9462667380        2.3595146716        0.8161778721
 H        -8.5108824050        1.0438373295       -5.8553736886
 H        -8.6211146216        2.0253916690       -7.2382120534
 H       -10.0573144902        1.2316468208       -6.7696725962
 H       -10.9281323926        3.4628514489       -7.3139801681
 H        -9.4257427246        4.5241846667       -7.1879755395
 H       -10.7520237693        4.7614166050       -6.0024343693
 Na      -10.1982019784        5.4325904917       -3.0516561864
