117

 C       -11.6780684574        1.2589059089       -4.7904069213
 C       -10.7752420703        2.3488771584       -4.4075465386
 O       -10.9944541048        3.1144919670       -3.4439368328
 C        -9.4491275287        2.4387537065       -5.3632049187
 C        -8.5545476557        3.5460561241       -4.6920697454
 O        -8.9567885464        4.6632307370       -4.6298736430
 C        -7.1623490225        3.0722595557       -4.1523747645
 C        -7.1805313163        2.3789394152       -2.8523176748
 C        -8.0171031423        2.9154681450       -1.7088247570
 O        -8.4674757571        4.0675879399       -1.7230193406
 C        -8.0734664668        2.1975686694       -0.3229699385
 C        -8.6994671366        0.7675601045       -0.5536844796
 O        -8.8578420915        0.3313672070       -1.6781471874
 C        -8.9088845502       -0.1448566898        0.7323659537
 C       -10.3158244895       -0.7689898896        0.9810786677
 C       -10.3807328857       -1.8205568242        2.1783296064
 O        -9.5963415100       -2.7264772943        2.1195390829
 C       -11.5936392375       -1.6994128058        3.2165531448
 C       -11.4530177160       -0.3438503933        3.9429185015
 O       -11.1744227458        0.6982095580        3.3643251231
 C       -11.7479741851       -0.3730311823        5.4487874219
 C       -11.1642918746        0.8965386134        6.1516133870
 C        -9.8191461344        1.2645812466        5.7087871472
 O        -9.0264322322        0.5033935304        5.2334538394
 C        -9.3633634234        2.7083929241        6.0359166408
 C       -10.3433341925        3.8082919191        5.5008329883
 O       -11.4381624381        3.9950330028        5.9449824762
 C        -9.8270755797        4.6513007643        4.3149082272
 C       -10.9878509211        5.3042830068        3.6398686285
 C       -10.6718410818        6.2615799839        2.4334382171
 O        -9.6780154002        6.9454518463        2.4914129082
 C       -11.8043618815        6.5854394248        1.4121043821
 C       -10.9824467847        6.5704414316        0.0136688168
 O       -11.1785952936        5.5519937363       -0.6438517775
 C       -10.0449962867        7.6196031836       -0.5176685969
 C       -10.4149082101        8.3818416109       -1.7411224035
 C        -9.5822360596        7.9238551914       -3.0031685084
 O        -8.6249080511        7.2027630122       -2.9114444286
 C       -10.0366761890        8.4206010824       -4.3783866805
 C       -11.4075510041        7.5904595180       -4.7617444857
 O       -11.5465975365        6.4460911030       -4.3793629225
 C       -12.3434841955        8.3009073151       -5.7051696666
 C       -10.3257341673        9.9470756260       -4.3895721987
 C        -8.9292213996        8.1458607983       -5.3989251924
 C       -12.9713506466        5.5225604053        1.3679137128
 C       -12.3501679022        8.0147175485        1.5965123310
 C        -9.3432137356        2.7808398168        7.5782994082
 C        -7.9783510303        2.9900938705        5.4831934200
 C       -12.9375197295       -1.7913783159        2.4451727891
 C       -11.5610746577       -2.9016131897        4.1914525127
 C        -6.6472546804        2.2837449657        0.4304271732
 C        -9.0024889310        2.9466934555        0.6380556551
 C        -8.8197117928        1.0006126894       -5.4212335920
 C        -9.8408143085        2.9827401494       -6.7938512032
 H       -12.7041494367        1.4707833889       -4.7050961842
 H       -11.6037640481        0.4372520689       -4.1235915380
 H       -11.4571534066        0.8516703409       -5.8379871460
 H        -6.7090945367        4.0154392984       -4.0441748279
 H        -6.6299071593        2.4101484818       -4.8218460063
 H        -6.1645905999        2.3751783406       -2.4813777355
 H        -7.4159319007        1.3124739261       -2.9909441478
 H        -8.6787077783        0.5073004664        1.6300493307
 H        -8.2283135889       -0.9580010434        0.6493939056
 H       -10.5943902262       -1.3331612397        0.0607743812
 H       -10.9591445216        0.0891613708        1.0832355585
 H       -11.3112986481       -1.1978122017        5.9277453328
 H       -12.8380572746       -0.4259302091        5.5695331496
 H       -11.2798901426        0.7229099043        7.2036866942
 H       -11.8841531673        1.7289177158        5.9956520271
 H        -9.4432461023        3.8578029087        3.6822679279
 H        -8.9197746051        5.3229695599        4.4267667355
 H       -11.5577134884        5.9252804656        4.2981757524
 H       -11.6778840804        4.5442903454        3.2702741270
 H        -9.1523520182        7.0353949505       -0.8699799991
 H        -9.7002398456        8.3637960726        0.2709524071
 H       -10.2196358102        9.4418970417       -1.6708750248
 H       -11.4919177326        8.2951169551       -1.9249438049
 H       -12.4154638014        7.6595296028       -6.5200411064
 H       -11.9260330912        9.2286131557       -6.0542753867
 H       -13.3449565764        8.3997054692       -5.1852352307
 H       -11.2485535107       10.1294494854       -3.7995033852
 H       -10.4086614824       10.2245404408       -5.4122036335
 H        -9.4721314771       10.3937846545       -3.8590827457
 H        -8.6163210428        7.1051798508       -5.4113669195
 H        -8.0918454962        8.7284228748       -5.0683479428
 H        -9.3181983262        8.5164940860       -6.3589583163
 H       -12.5811526832        4.5245727845        1.2106056176
 H       -13.6757164742        5.7446183336        0.5293927367
 H       -13.5716985454        5.7538507128        2.2521693585
 H       -11.5179350336        8.6954219849        1.4135355619
 H       -12.7501230207        8.2367476284        2.6008585115
 H       -13.1587698500        8.1792716157        0.8759050920
 H        -8.6189286223        3.5031790098        7.8546097308
 H        -8.9834966084        1.8553695330        8.0294491450
 H       -10.2525096913        3.1042850885        8.1076381840
 H        -7.8410821690        2.5635990269        4.4760448684
 H        -7.1497827214        2.5377875161        6.0249653605
 H        -7.6566594155        4.0094989880        5.3585015417
 H       -13.7511808049       -1.9562189613        3.1650798298
 H       -12.7937076009       -2.6628405353        1.7507348334
 H       -13.0605725854       -0.8168206003        1.8886474284
 H       -10.7793190173       -2.8283578567        4.9156673445
 H       -11.5184782255       -3.9160269908        3.8041467267
 H       -12.4647903611       -2.8114533624        4.7447397577
 H        -6.2020822625        3.2736999504        0.2729102754
 H        -5.8677260026        1.6054248824        0.0580573469
 H        -6.9070606990        1.9963545964        1.4386880410
 H        -8.6567657407        4.0081827375        0.7223073742
 H        -9.0619818606        2.4600287675        1.5749295839
 H       -10.0767072016        2.9920510837        0.2493693769
 H        -8.8359849874        0.4950617678       -4.4520027351
 H        -7.7591255483        0.9396566323       -5.8806725907
 H        -9.4026828249        0.4255340616       -6.1504810010
 H       -10.7196914180        2.5120208291       -7.1895353176
 H        -9.0354856366        2.7931021592       -7.4201908136
 H       -10.0659813976        4.0431923761       -6.7715811064
 Na      -10.0165535435        5.2664050568       -2.6944662633
