117

 C       -11.2607475430        0.4493764037       -4.1321945615
 C       -10.5355078419        1.8312265449       -4.1715068262
 O       -10.9929952430        2.7256597828       -3.5344291541
 C        -9.2264444672        1.8474021994       -5.0157366035
 C        -8.4143495110        3.1538708090       -4.5758423160
 O        -9.0920615681        4.2007413653       -4.6215839439
 C        -6.9516290009        3.1492507353       -4.0154390603
 C        -6.8864964925        2.5883729564       -2.6204212274
 C        -7.6799043572        3.1906618785       -1.4473206814
 O        -8.3493066630        4.2032886308       -1.6121131975
 C        -7.7298902512        2.3780152638       -0.1362374425
 C        -8.9341292091        1.2968902305       -0.2102856819
 O        -9.5014441786        1.2171309804       -1.3169341660
 C        -9.3775661959        0.4467669160        0.9777034081
 C       -10.6168230535       -0.5538092825        0.6952702620
 C       -10.7693714639       -1.7444731487        1.6725951364
 O       -10.1567191483       -2.7644155337        1.4748910893
 C       -11.7188703553       -1.5049706468        2.9325838345
 C       -11.4253898770       -0.1656602545        3.6008477521
 O       -11.7295889612        0.8433263553        3.0096845364
 C       -10.7335371413       -0.1365021288        5.0354236728
 C       -10.6181153390        1.3145703663        5.5237267932
 C        -9.2707476591        1.9135531698        5.4882209083
 O        -8.3847244938        1.4415792419        4.8284028399
 C        -8.9972422798        3.2751269982        6.3389065117
 C        -9.7344623904        4.4360441631        5.6195320299
 O       -10.5688910054        5.0853892345        6.2383823393
 C        -9.4811678983        4.6817252748        4.0731978896
 C       -10.8023441570        5.0577058643        3.3935517622
 C       -10.5857604818        6.0184035508        2.2233746050
 O        -9.5545088208        6.6415212822        2.1175463025
 C       -11.8898269772        6.4128172868        1.3725186432
 C       -11.2691312585        6.5920566071       -0.1206154904
 O       -11.6119987980        5.7840169803       -0.9607740624
 C       -10.4127800545        7.7966992219       -0.4072783870
 C       -10.7624508544        8.4038841182       -1.7378924422
 C       -10.0013985088        7.8427383280       -2.9873833697
 O        -9.0436050479        7.0642338399       -2.7312593472
 C       -10.5487153785        8.1047087816       -4.4396979019
 C       -11.6629692187        7.1219458512       -4.7859448889
 O       -11.7467070368        6.0150730403       -4.2370003396
 C       -12.5873317191        7.3066043753       -5.9900084531
 C       -11.1411898043        9.5031248524       -4.5574786536
 C        -9.4693644461        7.9063317013       -5.5305024390
 C       -12.9274025639        5.2625866810        1.2840654039
 C       -12.5267139920        7.6354288719        1.9619543899
 C        -9.5390662541        3.1928851518        7.7597710357
 C        -7.5411874865        3.5017321329        6.3947431538
 C       -13.2098491674       -1.3524337226        2.4198507261
 C       -11.6269162688       -2.6595420995        3.9077263154
 C        -6.4469003857        1.6596633738        0.3231700378
 C        -8.1444171084        3.4124853104        0.9210811658
 C        -8.2976116180        0.6071402668       -4.9194394763
 C        -9.6076791984        2.0190517387       -6.5207438965
 H       -10.5515144028       -0.3428080490       -3.7522134715
 H       -11.7341052059        0.0972712560       -5.0659369853
 H       -11.9950290721        0.4278684184       -3.4126673008
 H        -6.6899441959        4.2345943819       -4.0255236079
 H        -6.2215879286        2.7558773245       -4.7104178031
 H        -5.8711047259        2.8153619787       -2.2844410845
 H        -6.9364284021        1.5051952026       -2.5492309931
 H        -9.7256170202        1.0311559972        1.7850301882
 H        -8.5535584522       -0.1171941483        1.4560277062
 H       -10.5388516756       -0.9522799127       -0.3290020136
 H       -11.5502054304        0.0903735819        0.7087621656
 H        -9.8129145181       -0.6876268457        5.0787484368
 H       -11.3412972702       -0.6104047532        5.7774662623
 H       -11.2283866601        1.3971542146        6.4333581681
 H       -11.2531636563        1.8850771343        4.8514003863
 H        -8.9801362067        3.7748273038        3.6546250699
 H        -8.8750267238        5.5534945429        4.0213763453
 H       -11.4194047576        5.5467321114        4.1652518784
 H       -11.2809406126        4.1526917660        3.1026634736
 H        -9.2733021360        7.6000700931       -0.4977785752
 H       -10.5122516970        8.5894011194        0.3532807509
 H       -10.5582922580        9.5024970233       -1.6952416231
 H       -11.8395465859        8.2655973650       -1.9579506822
 H       -13.3288641209        6.5008339638       -5.9525558295
 H       -11.9708380204        7.0729053933       -6.8553363039
 H       -13.0517410835        8.1853760236       -6.0394337856
 H       -11.8943254234        9.6652499527       -3.8196488492
 H       -11.5534563828        9.6298654049       -5.5726539513
 H       -10.2798456488       10.1534405460       -4.5704912237
 H        -9.1977096699        6.8654178894       -5.5837138910
 H        -8.6404348464        8.5503140893       -5.2739953638
 H        -9.7853340157        8.2063337428       -6.4998974921
 H       -12.4861562758        4.2791238545        1.0844587834
 H       -13.6284479421        5.5567644393        0.5356461259
 H       -13.4727745544        5.1147421770        2.2166216179
 H       -11.9326661323        8.5446602627        1.9851165890
 H       -12.8818602636        7.3393866564        2.9312829883
 H       -13.3819969691        7.8828602378        1.3086150400
 H        -9.5364605515        4.1978723448        8.2641516543
 H        -8.9412708503        2.4906220857        8.3565799836
 H       -10.5362947460        2.7815323069        7.7555497897
 H        -7.2191457895        4.5441276323        6.3273158061
 H        -6.9994814471        3.0508774106        5.5325799175
 H        -7.1153011767        2.9738659142        7.2613801410
 H       -13.7802172376       -1.0061863565        3.2644305823
 H       -13.5059973474       -2.3054345271        2.0825351737
 H       -13.2283900432       -0.6457013962        1.6252075445
 H       -10.6444868443       -2.8621472485        4.3668273572
 H       -12.0210363615       -3.6342381860        3.6315132643
 H       -12.2168371846       -2.2432411663        4.7779791826
 H        -5.6608430340        2.3111942098        0.6190997464
 H        -6.1807076251        0.8877511646       -0.3495521552
 H        -6.6228991884        1.2311110587        1.2875039482
 H        -7.3361164460        4.1082372132        1.1147096658
 H        -8.3628567163        3.0019766434        1.9453304759
 H        -8.9697875530        4.0090146470        0.6075101061
 H        -8.0253567880        0.4218908316       -3.8588497342
 H        -7.4602779969        0.7881462661       -5.5388534495
 H        -8.8207244615       -0.3196956649       -5.2436949767
 H       -10.5134266857        1.5714799345       -6.7742399266
 H        -8.9055984619        1.5247781515       -7.0674871791
 H        -9.5814873715        3.0466415965       -6.8507907835
 Na      -10.4624146201        4.8031013069       -2.7680573125
