117

 C       -11.0361078137        0.2166076326       -3.8766427537
 C       -10.5114906115        1.5808958983       -4.0222992771
 O       -11.0939817141        2.5997633458       -3.6471444773
 C        -9.1387916910        1.8106303718       -4.8065897176
 C        -8.4312580884        3.2531453844       -4.4972039269
 O        -8.9845909383        4.2940468879       -4.7003299042
 C        -6.9647658620        3.2089739313       -3.8898938031
 C        -6.6967800085        2.5611685103       -2.4916881412
 C        -7.6773979469        3.0895451033       -1.4983288243
 O        -8.3278120232        4.0846720630       -1.7374430861
 C        -7.7256943554        2.4135828433       -0.1252818826
 C        -8.9865078950        1.3795972374       -0.3267694803
 O        -9.6305420868        1.3685083687       -1.3368709452
 C        -9.4063355780        0.4835855957        0.8954150607
 C       -10.5995855127       -0.4455455912        0.6200195253
 C       -10.8141599331       -1.6183818030        1.6939888276
 O       -10.2796045983       -2.7113988916        1.6357362631
 C       -11.8243374212       -1.4128280271        2.9207960295
 C       -11.4666063619       -0.0279999723        3.6541054492
 O       -11.8981317657        1.0102907352        3.1093719202
 C       -10.3840731956        0.0434204153        4.7477223167
 C       -10.4162527282        1.3925070705        5.5673749488
 C        -9.1243165404        2.1036324894        5.5870894404
 O        -8.2886533181        1.7570404179        4.7345955741
 C        -8.9480898028        3.2976842666        6.4477029442
 C        -9.6808929996        4.5032171641        5.5883156054
 O       -10.4306240005        5.2047449388        6.1959530944
 C        -9.4262448148        4.7958787204        4.0784422454
 C       -10.7667261261        5.2247602001        3.4311810216
 C       -10.5577245186        5.9937720654        2.1252553606
 O        -9.5094638000        6.5049886948        1.7360115224
 C       -11.8852665633        6.2621736244        1.2438632438
 C       -11.4386935491        6.5900465658       -0.1558977973
 O       -11.7245602322        5.7651193007       -1.0310835386
 C       -10.5847219739        7.7922023035       -0.4736622246
 C       -10.7915275552        8.5209213105       -1.8888044383
 C       -10.1340218845        7.7349512462       -3.0491545982
 O        -9.1801686954        7.0547095250       -2.9067887133
 C       -10.7136287634        7.9777174422       -4.4699119292
 C       -11.7648697176        6.9122117782       -4.7921956438
 O       -11.8466696060        5.8639913788       -4.1949432912
 C       -12.7171277858        7.2472533072       -5.9161803357
 C       -11.2225874606        9.4000567370       -4.5336735108
 C        -9.4673039023        7.9349720641       -5.3526297496
 C       -12.8423495733        5.0591186177        1.2902613232
 C       -12.5956057276        7.6028935521        1.8357922012
 C        -9.6060802745        3.2040149248        7.8797878726
 C        -7.4170835958        3.5544406977        6.6212638454
 C       -13.2317598671       -1.4356875759        2.3048098368
 C       -11.7769135699       -2.6847427160        3.8125696748
 C        -6.5022524373        1.5325551080        0.1516717668
 C        -7.9244295865        3.3756633699        1.0811852372
 C        -8.1958546206        0.6226388651       -4.7882811743
 C        -9.7483639096        1.9266351459       -6.2118070165
 H       -10.3143297946       -0.5451154550       -3.8258157336
 H       -11.7593338400        0.0218796742       -4.6587756113
 H       -11.6037000048        0.0665892190       -2.9157961385
 H        -6.6543505953        4.1937321317       -4.0642881036
 H        -6.3018481253        2.7138699353       -4.5989732408
 H        -5.6491653432        2.7402263545       -2.2071441473
 H        -6.7765005135        1.4622763483       -2.5359639593
 H        -9.6725990568        1.0744814691        1.8412473464
 H        -8.6229014951       -0.1582026887        1.3066907979
 H       -10.3841520755       -0.8727157754       -0.3511363668
 H       -11.4702189762        0.0926660045        0.5094869057
 H        -9.4228965666       -0.0453339828        4.1991835343
 H       -10.2995682932       -0.8474058695        5.4590895527
 H       -10.8586974695        1.2642262035        6.5540273115
 H       -11.2149669317        1.9740123189        5.0622001007
 H        -8.9815645424        3.9296191410        3.5877527233
 H        -8.7978005886        5.7533123066        3.9608296292
 H       -11.2202117936        5.9940605212        4.0445498464
 H       -11.4462469987        4.3516679021        3.3772030359
 H        -9.5720787697        7.5516882065       -0.4397611351
 H       -10.7374913969        8.5947089767        0.2520532553
 H       -10.2693522790        9.4604117377       -1.8469179038
 H       -11.8264425321        8.7484807297       -2.1080667421
 H       -13.1989242188        6.3059806142       -6.2633314705
 H       -12.1635474273        7.7719339002       -6.7112069809
 H       -13.5444736196        7.9354172206       -5.4786429494
 H       -12.1729552332        9.3922452922       -3.9684766507
 H       -11.4343075889        9.7171046676       -5.5338670250
 H       -10.4371861393       10.0978025662       -4.1734127051
 H        -8.8751312221        7.0337129384       -5.2189178285
 H        -8.8367298644        8.8029863163       -5.1863584123
 H        -9.7723467409        7.9946159659       -6.4089782465
 H       -12.3764503491        4.0628380014        1.1040040960
 H       -13.6834204487        5.2437509586        0.5681851441
 H       -13.2528398926        4.9379900980        2.3043750125
 H       -11.8926195259        8.3793707681        2.1011849894
 H       -13.2185153196        7.3189709960        2.6784839879
 H       -13.1380285575        8.1149580888        1.0420527945
 H        -9.3683751666        4.1150045303        8.3881442447
 H        -9.2294951816        2.2902276673        8.3191338224
 H       -10.6765884217        3.0698658264        7.9336427794
 H        -7.0839060986        4.1069519920        7.5287880089
 H        -6.9559546332        4.1140517317        5.8079064551
 H        -6.9566554638        2.5719896483        6.5767670715
 H       -13.8141316672       -0.8672217242        3.0501240924
 H       -13.5717490323       -2.4864783431        2.0781086712
 H       -13.2198050216       -0.8770424712        1.3467058069
 H       -10.8527141093       -2.6417816036        4.3396052371
 H       -11.6016176656       -3.5234276821        3.1879520237
 H       -12.5065308128       -2.8464966934        4.5374602664
 H        -5.5735533883        2.1221486120        0.2651602605
 H        -6.4564583434        0.7761774079       -0.6241935452
 H        -6.4864906062        1.0759722231        1.1269153233
 H        -7.0310161456        3.9206473739        1.4421774888
 H        -8.2603020714        2.8224730517        1.9480802450
 H        -8.6922752484        4.1754513944        0.8707592561
 H        -7.7999606761        0.3737833721       -3.8161949744
 H        -7.4165305822        0.9149364584       -5.5739178111
 H        -8.6625397569       -0.2948175768       -5.1586706852
 H       -10.2301019618        0.9824044828       -6.5028321030
 H        -8.9472170006        2.1160206501       -7.0446511076
 H       -10.4705683128        2.7032750457       -6.2396192895
 Na      -10.3730078480        4.7079124670       -2.6861642191
