117

 C       -10.6981743893        0.2111763181       -3.5312953595
 C       -10.1987670873        1.5953447956       -3.7079866227
 O       -10.8117475561        2.5029166851       -3.1637383541
 C        -9.0345599259        1.7347287892       -4.7936732291
 C        -8.3827307127        3.1034069711       -4.5583145023
 O        -8.9621093449        4.0619229135       -4.9024520088
 C        -6.9184213877        3.2007718700       -3.9070086138
 C        -6.6869789044        2.5244582135       -2.5491422064
 C        -7.6125164716        3.0185306202       -1.3905099455
 O        -8.4597357074        3.8542529370       -1.5465279538
 C        -7.6092024140        2.1800616795       -0.0239099224
 C        -8.8987143829        1.3650260361       -0.1994289971
 O        -9.4832390326        1.4095200684       -1.2684291127
 C        -9.3521434111        0.5227813479        0.9709017289
 C       -10.6386032273       -0.2448611438        0.7905026148
 C       -10.7737488265       -1.2803800789        1.8054910218
 O       -10.0961083481       -2.2608692583        1.8451803081
 C       -11.9715376641       -1.1565315919        2.9112624586
 C       -11.4604415375        0.1670439600        3.6632456084
 O       -12.1810511439        1.1284069964        3.6136617120
 C       -10.1537611227        0.2145787860        4.3682545187
 C       -10.0690328563        1.3916516435        5.3953801374
 C        -8.9526635873        2.4100606904        5.1959362166
 O        -8.1600603804        2.4385980117        4.2988903660
 C        -8.8956822985        3.5522815903        6.3203113372
 C        -9.7043106293        4.9322405492        5.8403364097
 O       -10.4688438745        5.5437436977        6.5483431581
 C        -9.3489057077        5.4182753074        4.3670984387
 C       -10.6989294972        5.4666251428        3.5998107893
 C       -10.4669876115        5.7470789917        2.0792664852
 O        -9.3851827696        5.6459894999        1.5999336202
 C       -11.8939212453        6.1344965090        1.1691146292
 C       -11.4044142868        6.3870764830       -0.3067894218
 O       -11.5457703792        5.5381831081       -1.1355569962
 C       -10.6920165288        7.7224280833       -0.4859868517
 C       -11.1315438284        8.2993678381       -1.8709688963
 C       -10.4629771173        7.5654401649       -3.0608390626
 O        -9.4347890407        6.8749815492       -2.8950271825
 C       -11.0056166473        7.8336391052       -4.5336275628
 C       -12.1500286225        6.8109206125       -5.0013785724
 O       -12.0531680041        5.6439686896       -4.6990495687
 C       -13.2707441287        7.1699600814       -6.0147636867
 C       -11.5143908533        9.2679446918       -4.6830285418
 C        -9.7916051133        7.6228310388       -5.5036079707
 C       -12.6776895520        4.7562297994        1.1951126274
 C       -12.7013977071        7.2002570644        1.8267897963
 C        -9.5480164908        3.1897621495        7.7336519206
 C        -7.3899374667        3.9965229682        6.4946493633
 C       -13.3459727778       -0.8908088075        2.2344406395
 C       -11.9114978933       -2.3236685827        3.8753061332
 C        -6.3757827048        1.2533841371        0.0354377049
 C        -7.5339310597        3.0486346409        1.3200947120
 C        -8.0010660015        0.5507941392       -4.8374310647
 C        -9.8717973924        1.7840229127       -6.0510304152
 H       -10.2688433365       -0.3334421428       -2.6573205434
 H       -10.5689477180       -0.4426157684       -4.4020664190
 H       -11.7452403824        0.2513577146       -3.4072956948
 H        -6.7558605103        4.2728023484       -3.9033061202
 H        -6.3290254514        2.8463371845       -4.7465524948
 H        -5.6516236579        2.6361516934       -2.2656367716
 H        -6.9825935960        1.4512713871       -2.5414048177
 H        -9.3656020155        1.0471381258        1.9528640344
 H        -8.5870991412       -0.2378734184        1.1743230681
 H       -10.5018371486       -0.7242256961       -0.1541735134
 H       -11.5059389479        0.4104922326        0.7025020527
 H        -9.2435131623        0.2370220901        3.7246426518
 H        -9.8567043641       -0.7123390756        4.9526409869
 H       -10.0298034775        1.0140529772        6.3978712267
 H       -11.0214353958        1.9929109370        5.2705542443
 H        -8.6813918197        4.6386501521        3.9252554051
 H        -8.8973887561        6.4169404479        4.2396583125
 H       -11.3443074142        6.2586487084        4.0158289187
 H       -11.2734391599        4.5165277416        3.6834308828
 H        -9.6502500605        7.6670932161       -0.5717144273
 H       -10.9351672677        8.3836201275        0.3240660864
 H       -10.7818739243        9.3162202085       -2.0035194868
 H       -12.1912264765        8.3216475447       -2.0626482854
 H       -13.2929301935        6.2098174618       -6.5963546071
 H       -13.1105560064        8.1954857620       -6.5251479455
 H       -14.2324963855        7.2195483176       -5.5267263123
 H       -11.9889135088        9.7517406564       -3.8425491421
 H       -12.2083995920        9.3406502804       -5.5256249136
 H       -10.6697498418        9.9659057107       -4.8485062575
 H        -9.3718295717        6.6424066643       -5.4673392428
 H        -8.9462655926        8.1707070156       -5.1290670661
 H        -9.9559952035        7.8924003168       -6.5084170475
 H       -12.0133210529        3.8708568249        0.9514326629
 H       -13.5450590058        4.6417286700        0.5352951317
 H       -13.1315384078        4.6248451632        2.2011783191
 H       -12.0929280753        8.0618525366        2.1424872406
 H       -13.1831925010        6.7916326704        2.6877862481
 H       -13.5304199806        7.4981008072        1.1201937018
 H        -9.6703286872        4.1891649326        8.1954537900
 H        -8.8889812650        2.5386277476        8.2919208590
 H       -10.5125899924        2.7567029346        7.6621946588
 H        -6.9219960894        3.2030244276        7.0728142822
 H        -7.4399098461        4.9754081582        6.9949429644
 H        -6.7885649513        4.1179494261        5.5676810678
 H       -14.1057759749       -1.1112488170        3.0409720215
 H       -13.5343969567       -1.4791857992        1.3020074518
 H       -13.4693823287        0.1811958772        2.0581192823
 H       -11.3065247543       -3.0898085481        3.4435109068
 H       -12.8912749724       -2.6548067488        4.0318428879
 H       -11.5206668232       -2.0944539788        4.8622500140
 H        -5.5034742950        1.9305486161        0.0980074457
 H        -6.0973028801        0.6748844304       -0.8356332321
 H        -6.4722942937        0.5285186680        0.8309289235
 H        -6.5048758244        3.4288554678        1.4079039104
 H        -7.7537012292        2.4150227925        2.2591932442
 H        -8.1397184166        3.9387481835        1.4586246522
 H        -7.1925768472        0.8202193830       -4.1092477868
 H        -7.5584873803        0.4440817716       -5.8032776938
 H        -8.4963440597       -0.4269100116       -4.5169926306
 H       -10.9193303089        1.4095491907       -5.8535374267
 H        -9.4661464248        1.2167640864       -6.8237881365
 H       -10.0630376912        2.8461404879       -6.4208839017
 Na      -10.4086962950        4.7692642567       -2.8837284391
