117

 C       -10.7841694186        0.0297325153       -3.5431935379
 C       -10.2083817919        1.4556093877       -3.7222060142
 O       -10.7634612106        2.4975344802       -3.3515927863
 C        -9.0302084930        1.6910464166       -4.7789699235
 C        -8.3292780443        3.0757457658       -4.5973601874
 O        -8.8898007808        4.1638318958       -4.9463156219
 C        -6.8929313596        3.3067193408       -3.9059879311
 C        -6.6731648561        2.6258594045       -2.5743453729
 C        -7.5465262076        3.1285787522       -1.3808472197
 O        -8.4279348581        3.9346256151       -1.5456421602
 C        -7.4208962996        2.2587649540       -0.0586830940
 C        -8.7857432604        1.4044421757       -0.1169287791
 O        -9.3363496147        1.2351861577       -1.1646618666
 C        -9.2271119003        0.5456935965        1.0715995441
 C       -10.5947951872       -0.2500107675        0.7853915878
 C       -10.8389646684       -1.3455701604        1.8206259609
 O       -10.0593628334       -2.2918180192        1.9780881151
 C       -11.9879487967       -1.1097866309        3.0219730403
 C       -11.5500121327        0.2392252005        3.7175716933
 O       -12.3005822117        1.1930417037        3.6651253954
 C       -10.1602827332        0.2505451109        4.5024246788
 C        -9.9927458111        1.4483792031        5.5447432393
 C        -8.9716295071        2.5738579815        5.2543712298
 O        -8.2858451320        2.5769300603        4.2394868471
 C        -8.8403671204        3.7087469690        6.3215157937
 C        -9.6286312715        4.9234950057        5.8642552499
 O       -10.4644642272        5.4520105109        6.5611554215
 C        -9.3492602098        5.4378040390        4.4516125080
 C       -10.6258110136        5.4701403149        3.6256846076
 C       -10.5484015465        5.6670130637        2.1216341529
 O        -9.4900132170        5.5888970034        1.4918275131
 C       -11.8212102728        5.9435574052        1.3506823657
 C       -11.3512384137        6.3262769176       -0.1928000501
 O       -11.5516310660        5.4925771713       -1.0421487876
 C       -10.7672426295        7.7052620800       -0.5470181900
 C       -11.1465228815        8.2612545031       -1.9653882403
 C       -10.5156909903        7.5417744786       -3.1519238485
 O        -9.5041227475        6.9323032657       -2.9255103942
 C       -11.0324291647        7.8360272075       -4.6561331732
 C       -12.1263670905        6.7149435979       -5.0882188105
 O       -12.0660074093        5.6364913194       -4.6208604909
 C       -13.3195379503        7.2034184772       -5.9586646378
 C       -11.5919664877        9.2542163424       -4.7029560127
 C        -9.9003683188        7.5793267603       -5.6247464048
 C       -12.6670636523        4.6378741576        1.1848429543
 C       -12.7872605593        7.1424478005        1.6644712038
 C        -9.4445684079        3.2486275064        7.6884858732
 C        -7.3613275739        4.0250935945        6.4857801526
 C       -13.3685983265       -0.8287915836        2.3943604545
 C       -12.0474279422       -2.3080428058        3.9064352373
 C        -6.2664298799        1.2253862108        0.0317221601
 C        -7.4917619139        3.0739460586        1.2146677683
 C        -8.0631480242        0.4859594331       -4.9519256796
 C        -9.9386001564        1.7783986195       -6.0924400018
 H       -10.4383002995       -0.4762824003       -2.6539864335
 H       -10.6652581635       -0.6749872272       -4.3370774440
 H       -11.9556439895        0.1655585344       -3.4720759492
 H        -6.7057551157        4.4186749483       -4.0157371332
 H        -6.3333189052        2.8287145551       -4.7265958937
 H        -5.6311233756        2.7669976762       -2.2508669424
 H        -6.9086351670        1.5565285773       -2.6511493417
 H        -9.5025351147        1.1509746431        1.8564421989
 H        -8.4221413631       -0.0516519683        1.5078648207
 H       -10.5694006029       -0.6530643290       -0.2486778973
 H       -11.3664399977        0.6203513562        0.7836843025
 H        -9.3577179535        0.3330834871        3.6940307027
 H        -9.7616836730       -0.5811257690        4.9901211416
 H        -9.8087415137        1.0003871826        6.5776167576
 H       -10.9555284101        1.9839079223        5.5241671925
 H        -8.5850946796        4.8034972290        3.9879266694
 H        -8.9872626150        6.4087172196        4.4702314052
 H       -11.3116999156        6.2782132981        4.0858419068
 H       -11.2098693394        4.5299958290        3.7021086691
 H        -9.6578634183        7.6000311885       -0.6539083329
 H       -10.9466752465        8.4295436408        0.1749409269
 H       -10.8990585598        9.3180267875       -2.0719662064
 H       -12.1954482249        8.1764846593       -2.1678338361
 H       -13.6448483432        6.3227056896       -6.4252251611
 H       -13.0084276344        8.0482051986       -6.5721864124
 H       -14.1972146093        7.6051931714       -5.3250459747
 H       -12.1752812603        9.4978196456       -3.8098192922
 H       -12.3078299822        9.3950324569       -5.5574223181
 H       -10.9176960151       10.0568980144       -4.6761751865
 H        -9.5663348795        6.5124492344       -5.6239089835
 H        -8.9435491097        8.0458698970       -5.3735302536
 H       -10.1573316744        7.8358161692       -6.6632623515
 H       -12.1953399790        3.7343156202        0.8665404694
 H       -13.4827967598        4.8191203846        0.4576584640
 H       -13.2522055803        4.4701748474        2.1224481763
 H       -12.2657102020        7.9690099198        2.1664483684
 H       -13.6818333456        6.8715416991        2.3100557819
 H       -13.2193805114        7.3831924874        0.7361567544
 H        -9.3571172918        4.0387648179        8.3989298745
 H        -8.8097495592        2.3914837587        7.9596608613
 H       -10.5278400987        2.9531446484        7.5561162794
 H        -6.9434085694        3.0496204336        6.4650145127
 H        -7.2514058609        4.5455799685        7.4141399496
 H        -6.9187231980        4.6514472084        5.7238131411
 H       -14.1076545174       -0.7878241366        3.1989959801
 H       -13.5958068624       -1.6635853476        1.6956975483
 H       -13.4221001703        0.2006022563        1.8531291066
 H       -11.7216677657       -3.1759370569        3.4132654008
 H       -13.1062922323       -2.3551549371        4.1739082223
 H       -11.5323291909       -2.1776568968        4.7916057568
 H        -5.3195737703        1.6215342995       -0.1723884174
 H        -6.3030528473        0.4384907448       -0.7549155735
 H        -6.4362996808        0.6551170658        0.9600813761
 H        -6.5168989504        3.5377097042        1.4738160552
 H        -7.8137726354        2.4971852791        2.0247590197
 H        -8.1940523417        3.9225874586        1.1999914159
 H        -7.1628873836        0.5741710277       -4.3503582426
 H        -7.7293517060        0.3744138360       -5.9826738325
 H        -8.6472456313       -0.3644839478       -4.6832832472
 H       -11.0652582843        1.5708540048       -5.9144991949
 H        -9.5492388369        0.9871566614       -6.8633199461
 H        -9.9359154514        2.7623887716       -6.6097204783
 Na      -10.3382400066        4.7904082568       -2.9557159871
