117

 C       -10.9016629345       -0.1216164454       -4.4586653974
 C       -10.3081028795        1.2616607878       -4.3606211602
 O       -10.6941451130        2.1190374965       -3.5875588831
 C        -9.2466507773        1.7291076325       -5.4678487999
 C        -8.3464564779        3.0054505315       -4.9699866996
 O        -8.6560190735        4.1142562119       -5.2605691730
 C        -6.9958824688        2.7544819030       -4.1731033074
 C        -7.1348061481        1.9956052990       -2.9053279497
 C        -7.6518075520        2.8512377464       -1.7335285265
 O        -8.2365609132        3.9134076408       -1.9849683801
 C        -7.3933767018        2.4029234790       -0.2498756054
 C        -8.0064942319        0.9132440409       -0.0006775669
 O        -8.3056929459        0.3037789600       -1.0159114485
 C        -8.2813262539        0.3987039336        1.4575436118
 C        -9.7897752768        0.4653353988        1.6740551496
 C       -10.2419512794       -0.2318462427        2.9830667954
 O        -9.4078686458       -0.8703313807        3.6043593210
 C       -11.7257190912       -0.0728512191        3.4865674546
 C       -11.5263474819        1.0883272546        4.5330745095
 O       -11.9561020051        2.2101491297        4.3855657005
 C       -10.8717970322        0.6663050865        5.8343104072
 C       -10.2447852009        1.7988984751        6.6127931455
 C        -9.2434470525        2.4695058323        5.6849436266
 O        -9.0789918732        2.0481855057        4.5275859045
 C        -8.7070897373        3.8489859400        6.1475806501
 C        -9.8201318137        4.8777089425        5.8018178227
 O       -10.6738814209        5.1568268754        6.5991945160
 C        -9.7909861233        5.4224529298        4.3644526513
 C       -11.1338577959        5.3638569961        3.5422088640
 C       -10.8896409622        5.8147790361        2.1050176737
 O        -9.8745309123        6.3870705626        1.7610734419
 C       -11.9650836630        5.5005343605        1.0209631651
 C       -11.2674971764        5.6486305305       -0.4402214490
 O       -11.3236972422        4.6653984946       -1.1942071682
 C       -10.5740441028        6.9411771706       -0.8537643653
 C       -11.3189666761        7.6182964937       -1.9909078472
 C       -10.6552827615        7.2126084616       -3.3136570778
 O        -9.5840628178        6.6204999161       -3.3640277392
 C       -11.4464085349        7.5006837380       -4.6535002991
 C       -12.3989792908        6.3255887757       -4.8509540418
 O       -12.0683502454        5.2413724385       -4.4165661358
 C       -13.7841040533        6.4613689330       -5.6190919184
 C       -12.2087518227        8.7873758631       -4.5442476826
 C       -10.4462361866        7.5566670108       -5.7758937801
 C       -12.3801825395        4.0756679882        1.1109866767
 C       -13.1538110024        6.4966581323        1.1764938814
 C        -8.4449943670        3.8367027455        7.7157848971
 C        -7.3969513731        4.2365922255        5.4197573950
 C       -12.7010092752        0.2563944073        2.3685110992
 C       -12.1170494758       -1.3674816093        4.2417913064
 C        -5.8105316360        2.2539166228        0.0323320162
 C        -7.8656145820        3.4903097635        0.7906675217
 C        -8.3060509138        0.5805607764       -5.8407997733
 C       -10.1253800018        2.3060297702       -6.6433376285
 H       -10.1425935195       -0.9236883426       -4.4316974967
 H       -11.3626907696       -0.2776431990       -5.4759062229
 H       -11.5561647256       -0.3116597358       -3.6348414666
 H        -6.6028330211        3.8020935069       -4.0915696289
 H        -6.3815413234        2.1834615584       -4.9017204929
 H        -6.2272936090        1.4428940215       -2.6220995581
 H        -7.8456096799        1.1630329004       -3.1386824215
 H        -7.7263840291        0.9302925778        2.1886993574
 H        -8.0590090952       -0.7161690776        1.5055373104
 H       -10.2135602281       -0.0345629719        0.7915497905
 H       -10.2080933923        1.5300429869        1.6448682183
 H        -9.9979849370       -0.0091303328        5.6755218407
 H       -11.4614842844        0.2364760394        6.5875697226
 H        -9.7661867023        1.4112018574        7.5237700709
 H       -10.9377248467        2.6075892073        6.8930758052
 H        -9.1102952216        4.7757513996        3.7599345901
 H        -9.3615959850        6.4115364183        4.3460106370
 H       -11.9884374782        5.9702686113        3.8405105529
 H       -11.5589663488        4.3905163551        3.5837405291
 H        -9.4503771492        6.6884856803       -1.0691374033
 H       -10.5795020317        7.6080787344       -0.0231748728
 H       -11.2952999165        8.7285841879       -1.9288083540
 H       -12.3738077905        7.3130253301       -1.9700156689
 H       -13.7624901707        7.2127326981       -6.4193160855
 H       -14.4632667632        6.7692060677       -4.9086325692
 H       -13.9699700229        5.5172802745       -6.0766571458
 H       -12.9735476519        8.7787782943       -3.7740986697
 H       -12.8359257281        9.1435944282       -5.3823945823
 H       -11.5671302492        9.5933439402       -4.3490427802
 H        -9.6359479300        6.7964535078       -5.6884382995
 H        -9.9556799060        8.4880053536       -6.0459993578
 H       -10.9405505298        7.2489352107       -6.7135104769
 H       -11.5483778718        3.4059123069        1.0588613664
 H       -13.1927299206        3.8252544434        0.4092173172
 H       -12.8426110287        3.8036661170        2.0862247688
 H       -12.9755306297        7.3839224649        0.5763767605
 H       -13.3569937020        6.6859302504        2.2656958511
 H       -14.0437023974        6.1711814340        0.7205878952
 H        -8.1536059355        4.7950451232        8.0045011825
 H        -7.7520100140        3.0248199828        7.9299763966
 H        -9.3947822675        3.6102131891        8.2798148371
 H        -7.2333199144        3.5738200879        4.6109611884
 H        -6.6268249342        4.1927323511        6.1474427433
 H        -7.5360088993        5.2456655874        5.0735360937
 H       -12.1467017368        0.3847466220        1.4416186938
 H       -13.2261056448        1.2171392757        2.4856032248
 H       -13.5485518345       -0.5059874785        2.1593494712
 H       -12.6879879394       -1.8769245759        3.5313041215
 H       -12.7880996422       -1.1712775972        5.0749711397
 H       -11.2812758436       -1.9247611972        4.4782504367
 H        -5.4792613251        3.2067651223        0.3626322978
 H        -5.2604342446        1.8231556041       -0.8177316157
 H        -5.5096073119        1.5565111669        0.8580803353
 H        -7.4473688037        4.4663133032        0.4736293693
 H        -7.5691306713        3.2901411972        1.7646855896
 H        -8.9556891987        3.6476281753        0.7159818741
 H        -8.0986589971        0.0147075441       -4.9405976445
 H        -7.3716466242        0.8825770444       -6.3492040442
 H        -8.7584471164       -0.1254306392       -6.4900276988
 H       -11.1830184308        1.9660385485       -6.5957838380
 H        -9.7307933948        2.1205280944       -7.6752440870
 H       -10.1740694268        3.4118372933       -6.4095373665
 Na      -10.2488274465        4.4303233285       -3.2490345271
