117

 C       -10.4435707008       -0.4334088697       -4.6098803382
 C       -10.1415935038        1.0226661943       -4.6578662776
 O       -10.6331205840        1.7723552990       -3.8408759328
 C        -9.3016887049        1.7175532310       -5.7598828501
 C        -8.3528770511        2.8190426679       -5.0720770365
 O        -8.4209011045        3.9705921543       -5.0893259720
 C        -7.1556201057        2.1272770160       -4.3761020177
 C        -7.3846846497        1.6886796372       -2.9072060879
 C        -7.7989062768        2.6759372523       -1.8504749579
 O        -8.5972217784        3.5733766564       -2.1044535820
 C        -7.2873626273        2.4551126641       -0.3696064984
 C        -7.8425169863        0.9394364025        0.1476268757
 O        -8.0365369665        0.0093374527       -0.6221289852
 C        -8.0726768423        0.7847924436        1.7232732428
 C        -9.4873772106        1.1600037645        2.2935109074
 C        -9.8912175031        0.0680053785        3.3078815403
 O        -9.1637005550       -0.6465393728        3.9297255200
 C       -11.4805292594        0.1036054452        3.7404581033
 C       -11.4572710445        1.2399224653        4.8649356399
 O       -11.7782928102        2.4013749899        4.6328628719
 C       -11.0082837049        0.8353519410        6.2333801445
 C       -10.4306221937        2.1454392614        6.9868833464
 C        -9.1845419256        2.5886693239        6.1519719563
 O        -8.6833579761        1.9234813471        5.2438094494
 C        -8.6318158343        4.0811685906        6.3510868942
 C        -9.7048266678        5.0676936830        5.6288034681
 O       -10.6785486498        5.4718912361        6.2268641448
 C        -9.4806908298        5.4285067791        4.1566459064
 C       -10.7659013002        5.2505252247        3.3576558476
 C       -10.7398372561        5.8502707609        1.9641374740
 O        -9.8314993521        6.5202940284        1.5877986674
 C       -11.9039046877        5.4758227535        0.9736300970
 C       -11.4829049280        5.7711913439       -0.4468394949
 O       -11.3649413729        4.8494529728       -1.2432401157
 C       -11.0922941583        7.1877901704       -0.8616731298
 C       -11.8018037807        7.5881979364       -2.0993587247
 C       -10.9939318421        7.2409335380       -3.3632386710
 O        -9.8633961273        6.7525371325       -3.2833446980
 C       -11.7099002215        7.2578296890       -4.8083227093
 C       -12.5907097096        5.9250730497       -5.0646136671
 O       -12.1614172567        4.8563134894       -4.7222381351
 C       -14.0054445570        5.9142901645       -5.7829816050
 C       -12.6367891800        8.4624096749       -4.8913033296
 C       -10.6315100685        7.2781937139       -5.9460261411
 C       -12.3869429324        4.0477751472        1.1859602732
 C       -13.0526301386        6.5092622594        1.2554792175
 C        -8.6437501485        4.3412443502        7.8710052176
 C        -7.2362412781        4.1079563127        5.7910663502
 C       -12.3671346181        0.5815535041        2.5906397204
 C       -11.9402057232       -1.2521807700        4.2326070546
 C        -5.7742307831        2.6310194315       -0.1603798541
 C        -8.0073319084        3.5352853306        0.4356727976
 C        -8.5051223586        0.7486665049       -6.6218694298
 C       -10.3973586398        2.4738665301       -6.6871140418
 H        -9.6754575179       -0.9830779133       -4.0541063893
 H       -10.5473818586       -0.9580938888       -5.6120332716
 H       -11.2872799082       -0.6585964108       -4.1078506057
 H        -6.3159215509        2.7825957916       -4.4445274761
 H        -6.7791841746        1.2732703028       -4.8744128780
 H        -6.4403686640        1.2551951143       -2.6486918219
 H        -8.1243989953        0.8775847765       -2.9254598478
 H        -7.2741209209        1.2685520767        2.2275427670
 H        -7.9603661630       -0.2911498057        1.9609285698
 H       -10.1567594990        1.0974757370        1.4547835708
 H        -9.6872203893        2.0997384386        2.7253474800
 H       -10.3106716902       -0.0123233895        6.1614141179
 H       -11.8597145396        0.5260868334        6.8561236201
 H       -10.0578690498        2.0279032710        7.9852379597
 H       -11.1319465354        2.9993233365        7.0345374921
 H        -8.7536079098        4.7122532025        3.7475836505
 H        -9.0444396414        6.4436002113        4.1076166120
 H       -11.6261742553        5.5769507129        3.9849994891
 H       -10.7764999677        4.1238818013        3.3459099557
 H       -10.0014608771        7.1402823843       -1.0665544954
 H       -11.1742903534        7.8293414880       -0.0582247466
 H       -12.1938887864        8.6194213863       -2.1397528256
 H       -12.7004506204        6.9520379786       -2.2426990404
 H       -13.8061944951        5.3142419785       -6.7654368529
 H       -14.5306468314        6.8727158688       -6.0007829746
 H       -14.6784005461        5.4042763369       -5.1439318936
 H       -13.4654808975        8.2997286378       -4.1893128615
 H       -13.0100750961        8.5176764481       -5.9517654402
 H       -12.2431032144        9.4268518138       -4.6769586569
 H        -9.7334007105        6.6404494141       -5.7279776915
 H       -10.1073294987        8.2545940159       -6.0083499627
 H       -11.0478091073        7.0632263758       -6.9489112463
 H       -11.6187823560        3.3482942401        0.9694184833
 H       -13.1203678184        3.7931549332        0.4337887889
 H       -12.7999490221        3.8663970782        2.1868654394
 H       -12.7607265828        7.4956445021        0.9420785801
 H       -13.1335113903        6.7072536374        2.3491842805
 H       -14.0186129235        6.2114842779        0.9357888806
 H        -8.1380631362        5.2498612724        8.1440423021
 H        -8.1782597122        3.5550046842        8.5017810588
 H        -9.7579563077        4.3816116999        8.1117676365
 H        -7.1520268122        3.3790108955        4.9656308550
 H        -6.5360778144        3.7594359194        6.5484034880
 H        -6.8776088725        5.0963638658        5.4413376815
 H       -12.0025527840        0.4057195043        1.6221598686
 H       -12.4448183294        1.6527868956        2.6782253795
 H       -13.3912805337        0.1379600058        2.5186799234
 H       -12.0942383620       -1.8199111515        3.3067134582
 H       -12.8611904807       -1.2639192610        4.9150850073
 H       -11.1524499211       -1.7495304316        4.8010017641
 H        -5.4854138948        3.6376612993       -0.2482954525
 H        -5.1977443017        2.2274717842       -0.9892814819
 H        -5.5124009314        2.1695362668        0.8163586543
 H        -7.5717323361        4.4798898023        0.1005311800
 H        -7.9486934060        3.4515962806        1.4516156483
 H        -9.0306525863        3.4920831103        0.0699399443
 H        -7.7850197997        0.1757016059       -6.0713024777
 H        -7.9256317775        1.2953368687       -7.3647209474
 H        -9.1338913593        0.0842688001       -7.1528496384
 H       -10.8281186818        1.7981034882       -7.3504916830
 H        -9.9946005097        3.2778300846       -7.1645666493
 H       -11.1583647416        2.8811950154       -6.0272990119
 Na      -10.3089833270        4.1651263563       -3.4613040050
