117

 C       -10.3692974752       -0.3166758614       -4.4418362070
 C       -10.2505211857        1.2013192005       -4.5330300069
 O       -10.7878740507        1.9292766661       -3.7526608109
 C        -9.2719869607        1.7958270717       -5.6551050314
 C        -8.2672329860        2.6642968345       -4.8308122964
 O        -8.4926325923        3.8908180819       -4.7536310550
 C        -7.0176766052        2.1253681683       -4.0545594811
 C        -7.4084733856        1.3992457455       -2.7100690181
 C        -7.9347593492        2.4812608496       -1.6804794875
 O        -8.8351505447        3.2644944160       -1.9197048135
 C        -7.1620706171        2.5058677418       -0.2975000396
 C        -7.6856469617        1.2530329938        0.5128844071
 O        -7.7881071855        0.2134006499       -0.1208340884
 C        -8.1729543058        1.1182174475        1.9268494847
 C        -9.6458720681        0.8130330176        2.0973846446
 C        -9.9477453272       -0.2408037174        3.1103362994
 O        -9.3036269427       -1.2675440984        3.2389059526
 C       -11.2903609283       -0.1217128878        3.9231952779
 C       -11.1941671776        1.1777997326        4.8231364229
 O       -11.4463080460        2.3107685733        4.4260571379
 C       -10.5068852303        1.0384341478        6.2232093270
 C       -10.2290620197        2.3784904659        6.8466717086
 C        -9.0599394397        3.1138833509        6.1204663718
 O        -8.5504149306        2.5445561123        5.1806852228
 C        -8.6180557435        4.5043695762        6.6731937128
 C        -9.4557663713        5.4188107215        5.5535576489
 O       -10.3617259768        6.1395218360        5.9548380703
 C        -9.2320183147        5.2648577540        4.0117765245
 C       -10.5981326759        5.2954074169        3.2845502368
 C       -10.5270301703        5.6745355440        1.7947734415
 O        -9.5034261360        6.1109055850        1.3328060245
 C       -11.9217758687        5.5163749070        0.8492703484
 C       -11.6174426505        5.7931406542       -0.6312603678
 O       -11.6499782479        4.8162040837       -1.3758372453
 C       -11.2796436425        7.2394471424       -1.1257647655
 C       -12.0120000542        7.5789758795       -2.4588241387
 C       -11.2970429780        6.9352100017       -3.6550663953
 O       -10.1321049892        6.5649908023       -3.5892458161
 C       -12.0492173958        6.9762717073       -5.0151176018
 C       -12.9347338386        5.6512697191       -5.2149978803
 O       -12.5892044116        4.5657861548       -4.8006734233
 C       -14.1699505066        5.7752804499       -6.0779020332
 C       -12.8549999046        8.3552386561       -5.2048177645
 C       -10.9336220773        6.8495451414       -6.1183077332
 C       -12.5808192527        4.1466267999        0.9951047436
 C       -12.9619052314        6.5261770998        1.4336178188
 C        -9.1506869609        4.9814405491        8.0183386065
 C        -7.1184284352        4.7135574287        6.6541346136
 C       -12.4335814546        0.1267693879        2.9631883001
 C       -11.5226735116       -1.3798948757        4.8500389369
 C        -5.6499108383        2.2702350382       -0.5741077218
 C        -7.4549957072        3.7502618816        0.4546433699
 C        -8.5315900743        0.7603805957       -6.5106921832
 C       -10.2487549826        2.6918039107       -6.5813474188
 H        -9.3781055435       -0.8342429048       -4.5252439982
 H       -10.9606889651       -0.7798777123       -5.2282816665
 H       -10.9097179545       -0.6542549625       -3.6095967129
 H        -6.3327581186        2.9317276055       -3.7631650019
 H        -6.5563414757        1.3739641853       -4.7624039397
 H        -6.5240040474        0.8506576007       -2.3849375786
 H        -8.2132557943        0.6969727299       -2.8807271235
 H        -7.8487642858        1.8883402724        2.6711039587
 H        -7.7214264172        0.2426212559        2.2237377236
 H       -10.0483419454        0.4343969328        1.1541056786
 H       -10.2329502125        1.7153645774        2.3222551053
 H        -9.5865461919        0.5470586607        6.0244820107
 H       -11.0638735670        0.3673208380        6.9274966893
 H        -9.8679721744        2.3460233081        7.9082200295
 H       -11.1354458040        3.0178719442        6.7830549762
 H        -8.5819854577        4.4690278194        3.6753009967
 H        -8.6804057942        6.1614954800        3.7613605029
 H       -11.1535370362        6.1738543539        3.7688157780
 H       -11.1159064282        4.3459827062        3.5861622444
 H       -10.2322355307        7.3465768641       -1.3186087910
 H       -11.6082030411        7.9688789583       -0.2911225884
 H       -11.8732108068        8.6527572462       -2.5324941934
 H       -13.0719733473        7.3797462754       -2.5413163122
 H       -13.8498017766        5.7281232069       -7.1027411451
 H       -14.6703489068        6.7313304333       -5.9754765562
 H       -14.9157068392        4.9869428673       -5.7650973991
 H       -13.7017275488        8.3980674596       -4.5201405148
 H       -13.1889516301        8.6395543929       -6.1986582748
 H       -12.0256483548        9.0229133860       -4.8250450641
 H       -10.3416543061        5.9368551714       -5.9618631209
 H       -10.3342094936        7.7810835246       -6.1905183755
 H       -11.3482704279        6.6743487384       -7.1096405958
 H       -11.9366386849        3.3435425227        0.6197934804
 H       -13.5226604813        4.1611603703        0.5071908754
 H       -12.6917208491        3.9873396205        2.0460644902
 H       -12.6181783753        7.5350786408        1.6575386227
 H       -13.2819863321        6.0838003770        2.3266325734
 H       -13.8949250277        6.6659699928        0.8068924526
 H        -8.7065786722        5.9961423272        8.2612938704
 H        -8.8526467273        4.3298023450        8.8484394448
 H       -10.1949755526        5.1876518966        8.0262392949
 H        -6.6656531306        4.6707807827        5.6466323131
 H        -6.6704142161        3.9335470666        7.2858046625
 H        -6.7738370275        5.7185539701        6.9562058566
 H       -12.6709423508       -0.8509503737        2.5058517347
 H       -12.1088683332        0.7018854916        2.1231393154
 H       -13.3076878501        0.5584146793        3.3842484352
 H       -11.2687385868       -2.3895709333        4.4755942221
 H       -12.5985436577       -1.5064021071        5.1206463535
 H       -10.8757622907       -1.2400440167        5.7577552041
 H        -5.2311414268        2.9274268698       -1.3768498958
 H        -5.4831601325        1.2005535197       -0.6971054003
 H        -5.1052710572        2.5903496314        0.2846042395
 H        -7.0453185931        4.5796016040       -0.0888858637
 H        -6.9854843140        3.6168907902        1.4249908399
 H        -8.5129596339        3.8461230725        0.6158137167
 H        -7.9652062298        0.0892840019       -5.8769969565
 H        -7.9291505582        1.3048207738       -7.1456161623
 H        -9.1813001439        0.1252678076       -7.1361583187
 H       -10.5616221112        2.0989230628       -7.3928596286
 H        -9.6401165674        3.4560554112       -7.0574105002
 H       -11.1138883364        3.1416390966       -6.0707197877
 Na      -10.5543114062        4.1155619000       -3.4404190710
