117

 C       -10.7455613907       -0.4899031867       -4.6288220175
 C       -10.5013689243        1.0485051318       -4.5165922437
 O       -10.9995375523        1.6906561675       -3.6801898671
 C        -9.3872908789        1.6998112962       -5.5229114034
 C        -8.5120205791        2.6774855949       -4.6750303425
 O        -8.8276498788        3.8624550490       -4.6097790218
 C        -7.2373919871        2.1745917799       -3.9196282233
 C        -7.6654480549        1.5980167658       -2.5714328304
 C        -7.7914964887        2.5422542542       -1.4117755121
 O        -8.6238021137        3.4133055723       -1.4076347625
 C        -6.9995492996        2.2485095332       -0.0926859168
 C        -7.5756935571        1.0140723082        0.5268470417
 O        -7.5761711025       -0.0555245238       -0.0877913609
 C        -8.4405683139        1.1547374069        1.7736798131
 C        -9.6847906557        0.2229027603        1.8167236215
 C        -9.7982249675       -0.5640996284        3.1216928124
 O        -8.9445314285       -1.2256215476        3.5591298708
 C       -11.0612291982       -0.2230177552        4.1004919382
 C       -10.8654770756        1.2159578642        4.6489348605
 O       -11.2236955781        2.0972585546        3.8921672388
 C       -10.0072841713        1.4057387127        5.9013440154
 C        -9.9249001629        2.8705524577        6.4176556728
 C        -8.8911796536        3.7890001806        5.7367429989
 O        -8.1252627243        3.4135404647        4.8819373499
 C        -8.7178110884        5.2135420383        6.3616627210
 C        -9.4978192345        6.1614755676        5.3314806270
 O       -10.4086552026        6.8833990535        5.7101919329
 C        -9.3560361645        5.8939415228        3.8089214883
 C       -10.7292098656        5.4141002228        3.1821911348
 C       -10.7239618348        5.5585803829        1.6748675217
 O        -9.7565329845        5.9085845072        1.0584792484
 C       -12.1085572763        5.4012193670        0.8795582884
 C       -11.7533489374        5.4339739222       -0.5997703702
 O       -11.9706589652        4.4654688301       -1.3526305013
 C       -11.1424897952        6.6930093378       -1.2225327316
 C       -11.8910949372        7.1574691683       -2.4632873039
 C       -11.2449197529        6.8040276262       -3.8214195550
 O       -10.1409726292        6.3328080772       -3.8559054495
 C       -12.1440600118        6.8275895257       -5.0899432570
 C       -12.8784584717        5.4600441236       -5.0746403899
 O       -12.5141929410        4.5314462429       -4.3837657474
 C       -14.2369971094        5.4803976203       -5.7953138131
 C       -13.0750323001        8.1363107869       -5.0725381529
 C       -11.3048178134        6.7968044645       -6.3946395674
 C       -12.8837644275        4.0780066715        1.2171356899
 C       -13.0414962718        6.6398048419        1.2960058622
 C        -9.3572196229        5.5104076262        7.7413462096
 C        -7.1973726035        5.4748893696        6.4528773575
 C       -12.4288918778       -0.2520185764        3.3830639965
 C       -11.0749019358       -1.3811824118        5.1488285536
 C        -5.4840365720        1.9442354952       -0.4244701493
 C        -7.2371374367        3.5955558591        0.7491907235
 C        -8.4934083242        0.6798730246       -6.1795899349
 C       -10.0264479726        2.5555135798       -6.6366225370
 H        -9.7792098967       -1.0314993366       -4.3191320588
 H       -10.8325208064       -0.8504580670       -5.6717522911
 H       -11.4813027428       -0.8174194912       -4.0208666249
 H        -6.5088810955        2.9783539210       -3.7735030601
 H        -6.7960381246        1.4388340472       -4.6051774714
 H        -7.0872555733        0.7093036543       -2.2306337373
 H        -8.6968037103        1.1754991136       -2.6849050307
 H        -8.8241745595        2.2287302478        1.9767028916
 H        -7.7666953681        0.8263900632        2.5934892881
 H        -9.5238890845       -0.5521120857        1.0733136445
 H       -10.6138418842        0.8538767821        1.5768639934
 H        -8.9978965041        0.9187657767        5.7109506711
 H       -10.4021580217        0.7939760506        6.7274886987
 H        -9.6129815400        2.7573317846        7.4593855306
 H       -10.8693788636        3.3770425207        6.3888234025
 H        -8.5745610271        5.1282549402        3.5667287370
 H        -9.0400866888        6.8359106484        3.3523690436
 H       -11.5339311166        6.0467411532        3.5485317939
 H       -10.9978588903        4.4877016498        3.5246643846
 H       -10.1616338308        6.4743908381       -1.5620324223
 H       -11.0626088519        7.5126052663       -0.4331714878
 H       -11.9158600982        8.2742184331       -2.4071888837
 H       -12.9159870760        6.7434931304       -2.5117473412
 H       -14.3680222619        6.3493073718       -6.4924925489
 H       -15.0110458371        5.5276555800       -5.0448309387
 H       -14.3237694879        4.6202345059       -6.4106117607
 H       -13.7486272902        7.9641895022       -4.2485539307
 H       -13.5327038804        8.1884722462       -6.0222100607
 H       -12.4587632057        9.0440291933       -4.8465715090
 H       -10.4682113067        6.1489638677       -6.2485407465
 H       -10.8185545897        7.7513748935       -6.4521566051
 H       -11.8939394934        6.6045833289       -7.2547233666
 H       -12.2925715685        3.2232319082        0.7918887132
 H       -13.8291982133        4.1353888447        0.7033942721
 H       -13.0343395714        4.0930749001        2.2962276124
 H       -12.4914322987        7.5956439660        1.2817036321
 H       -13.3615496869        6.5137322738        2.2965970260
 H       -13.9855463188        6.7374186563        0.6533368462
 H        -8.9585080927        6.4841654490        8.0766874913
 H        -9.0000087104        4.8242004960        8.4876988923
 H       -10.3769313996        5.4551003730        7.8427670724
 H        -6.5964470438        5.4714198992        5.5301273989
 H        -6.6372803863        4.7093263720        7.0314640510
 H        -6.9598229847        6.3339522675        7.0944498626
 H       -12.7021754978       -1.3224437816        3.1709026288
 H       -12.4334933987        0.4363739899        2.5302050007
 H       -13.1778388442        0.0695809180        4.0961341164
 H       -10.7242193893       -2.2682641091        4.6558192504
 H       -12.0218729299       -1.5449239071        5.6614558997
 H       -10.3343866326       -1.2587278455        5.9540946527
 H        -5.1889469891        2.4760585391       -1.3712351042
 H        -5.4703324476        0.8789240690       -0.6503711345
 H        -4.8348131699        2.1053165827        0.3951079841
 H        -6.5682927980        4.3754724782        0.3728911264
 H        -6.8350396917        3.4069631044        1.7692613431
 H        -8.2824846579        3.9601479055        0.6786608720
 H        -7.8483922026        0.1671196893       -5.4415006436
 H        -7.7823596244        1.2150585534       -6.7656035184
 H        -9.0611221028       -0.0321794711       -6.8494482132
 H       -10.6857414536        1.9653809953       -7.3385810292
 H        -9.1620917934        2.9253953398       -7.1669561532
 H       -10.6143805062        3.4934111946       -6.2491618686
 Na      -10.4349263012        4.0812084183       -3.0924199590
