117

 C       -10.5541454177       -0.3385229941       -4.5050487536
 C       -10.4286029752        1.1812183717       -4.4689512749
 O       -11.1903437311        1.7863363140       -3.7382794304
 C        -9.3575461278        1.8066259099       -5.4577928289
 C        -8.2814782259        2.6780886490       -4.7066228483
 O        -8.5514663226        3.9040105913       -4.4877858742
 C        -7.0771083426        2.1497154559       -4.0467989821
 C        -7.5666896291        1.5050665265       -2.6803847853
 C        -7.8563837309        2.5770242724       -1.5771871668
 O        -8.8944107175        3.2330384427       -1.5281692209
 C        -6.9842805151        2.5313438082       -0.3063022356
 C        -7.7067147376        1.2325061261        0.4377020766
 O        -7.7160699542        0.1836886202       -0.1430012594
 C        -8.2162901951        1.1456072837        1.9032856287
 C        -9.6550271009        0.6263916366        1.9767850187
 C        -9.9084675619       -0.4035453751        3.0259557426
 O        -9.1918956155       -1.3501088829        3.2368297071
 C       -11.3179187228       -0.2425046561        4.0772355395
 C       -11.0459057913        1.0982513261        4.7893494503
 O       -11.2637310108        2.1355887160        4.1542099379
 C       -10.3826447573        1.0623958146        6.1687439266
 C       -10.1036050811        2.5174380167        6.7497183164
 C        -8.9681643012        3.3193349660        6.0041651637
 O        -8.2051704930        2.8257619958        5.2346575466
 C        -8.8758566491        4.8506924114        6.4011614643
 C        -9.5608380691        5.8247134314        5.4225335042
 O       -10.2125262000        6.7946360268        5.8058533816
 C        -9.2752873142        5.5817744982        3.9061304962
 C       -10.5998487391        5.4003056366        3.2322594494
 C       -10.5208863010        5.5791843603        1.7133358240
 O        -9.5089210136        5.6863878752        1.0270995628
 C       -11.8724502599        5.5254160639        0.9195439146
 C       -11.5548734913        5.6580692573       -0.6006746599
 O       -11.5976906447        4.7341959366       -1.3695515914
 C       -11.1726842674        7.0628406030       -1.2137333853
 C       -12.0158981044        7.4416501294       -2.4546117117
 C       -11.3285070111        6.9194393675       -3.7241537540
 O       -10.2486330440        6.4055146660       -3.6957563433
 C       -12.1251522952        6.8657846209       -5.0294161491
 C       -12.9824657583        5.5653732669       -5.1784996616
 O       -12.6308012276        4.5262287127       -4.6195637036
 C       -14.2415813819        5.6744803757       -6.0372556795
 C       -12.8616921546        8.1997636145       -5.2479669021
 C       -11.0561041477        6.7774435323       -6.1391396859
 C       -12.4832955705        4.1302424099        1.1950772760
 C       -12.8807036864        6.5885072787        1.3842882411
 C        -9.3194624634        5.0896573559        7.8502053033
 C        -7.3967834425        5.2873258867        6.2155282965
 C       -12.4931191300       -0.0863862548        3.1106895506
 C       -11.3924435361       -1.5819511535        4.9658102711
 C        -5.4346054706        2.1492002055       -0.3655755467
 C        -7.2812550291        3.7226561893        0.5299376455
 C        -8.3798282333        0.8557854303       -6.2302918737
 C       -10.1381151032        2.6322102087       -6.5000845792
 H        -9.6668768373       -0.7777836709       -3.9799414977
 H       -10.5276175072       -0.8880822283       -5.4313479856
 H       -11.4601944016       -0.6287060243       -3.9921266838
 H        -6.4997398826        3.0075446265       -3.8624761268
 H        -6.5781212199        1.3576744366       -4.5485501889
 H        -6.8418398356        0.7179821898       -2.4697168096
 H        -8.4876639418        0.9729402823       -2.9066967629
 H        -8.1184264830        2.1351157985        2.4194731318
 H        -7.5605838068        0.4204345108        2.4163455341
 H        -9.8059795745        0.1882039601        1.0266596156
 H       -10.3875675997        1.4714985549        2.1142272608
 H        -9.4989516218        0.3355357415        6.1541355964
 H       -11.0610039515        0.5444854430        6.8108426541
 H        -9.6050974249        2.4493564689        7.7189123467
 H       -11.0003631994        3.0590115406        6.8328175854
 H        -8.5457824522        4.7630956934        3.7109780456
 H        -8.8486621234        6.4251295322        3.3653841077
 H       -11.2984102411        6.1497324351        3.6675284792
 H       -10.9951935761        4.4598197840        3.4704585216
 H       -10.1791680934        6.8899936754       -1.4721104402
 H       -11.2630819831        7.8493735162       -0.4416976152
 H       -11.9677086948        8.5644456710       -2.5439664442
 H       -13.0495582778        7.0359311860       -2.3459528045
 H       -14.2789095150        6.5441508542       -6.6421923175
 H       -15.1103987485        5.7559263387       -5.3476353027
 H       -14.3454289197        4.6899108141       -6.6553640273
 H       -13.6494472600        8.3736187861       -4.5274062141
 H       -13.2830782134        8.0622721141       -6.1865427072
 H       -12.0860006891        8.9888835525       -5.2585420452
 H       -10.4311148515        5.9022977822       -6.0573825574
 H       -10.5205068217        7.7342878167       -6.0018145906
 H       -11.4738142720        6.8040518003       -7.1540633907
 H       -11.6193552099        3.4112197431        1.1012393064
 H       -13.2698739590        4.0937804854        0.4221699630
 H       -12.9567886231        4.0155189020        2.1850698942
 H       -12.5370317907        7.6162843344        1.2118367981
 H       -13.1019869201        6.3583333162        2.3835514495
 H       -13.8289146543        6.6299959279        0.7997821388
 H        -9.2869211725        6.2088870691        7.9746114723
 H        -8.8052343299        4.5848533094        8.6689844484
 H       -10.3355031242        4.8506490832        8.0126139807
 H        -6.9977860751        4.7828860579        5.3617230220
 H        -6.7745542384        5.0285523621        7.0643811710
 H        -7.2087045787        6.3028652597        5.9445342297
 H       -12.2999934966       -0.6885967004        2.1434583221
 H       -12.8461451978        0.9694374831        2.9893043509
 H       -13.3633247329       -0.5182343698        3.5609589194
 H       -11.8320597532       -2.4209694791        4.4981750518
 H       -11.9277118189       -1.4884107538        5.8431511889
 H       -10.3753144556       -1.8939437847        5.1804489120
 H        -4.9060001389        3.0070323585       -0.8420184922
 H        -5.3116036304        1.1660481135       -0.7762090911
 H        -4.9897452701        2.0910482425        0.5972551559
 H        -6.9119809609        4.5678538423        0.0000862785
 H        -6.7400857306        3.5833983814        1.5270380108
 H        -8.3392555176        3.8246460345        0.6271349309
 H        -7.7313362155        0.3027104372       -5.5292446041
 H        -7.7750327685        1.4871586379       -6.8666969813
 H        -8.8971985026        0.0932217067       -6.8600964887
 H       -10.7276665662        1.9986393884       -7.0833188367
 H        -9.4615118499        3.2219896000       -7.1881423298
 H       -10.8145521209        3.2586285346       -5.9892906301
 Na      -10.6722243948        4.1068485268       -3.3403189532
