117

 C       -11.4893234554       -0.5827399516       -4.5760246043
 C       -10.6556532413        0.6328629960       -4.4699471020
 O       -10.9523490661        1.5020444507       -3.6961555264
 C        -9.3440687873        0.6291638742       -5.3888187490
 C        -8.3977173189        1.6991703710       -4.9479588672
 O        -8.7028488243        2.8755334422       -5.2371874479
 C        -7.2224297313        1.5136353098       -3.9353421642
 C        -7.6629838284        1.1282905219       -2.5619856492
 C        -8.0981694018        2.2838743433       -1.6697575434
 O        -8.9000164860        3.0686751439       -2.1202862082
 C        -7.4819141638        2.4010199096       -0.2604870981
 C        -7.8892745197        1.1380230055        0.6236122204
 O        -8.6405555022        0.3528330762        0.0954127307
 C        -7.5375645710        1.0934402257        2.1153716022
 C        -7.8956976183       -0.2720623121        2.6268921305
 C        -8.6837519643       -0.2935880052        4.0373198845
 O        -8.1701019381       -0.9332304070        4.9834539585
 C       -10.0881300562        0.3383929431        4.1708875332
 C        -9.9530377248        1.7664719943        4.7289871788
 O       -10.2524861627        2.7559707373        4.0103622742
 C        -9.2729133443        2.0271528084        6.0995307865
 C        -9.2960597269        3.5031835229        6.4529936177
 C        -8.6125119590        4.4598075789        5.5079931050
 O        -7.8317858692        4.0587160663        4.6159019060
 C        -8.7395303724        6.0405146701        5.7830848470
 C       -10.2417434673        6.6407054437        5.5004157626
 O       -11.0825110033        6.4361973263        6.3522969225
 C       -10.5529081316        7.0846797404        4.0395464645
 C       -10.8693217673        5.8186874161        3.2631408178
 C       -11.1593527439        6.1233941061        1.8193708957
 O       -10.5763592240        7.0725088717        1.3380498210
 C       -12.1156063134        5.2425343847        0.9075541976
 C       -11.6828272059        5.2808788210       -0.5761271859
 O       -11.6357905529        4.2429667538       -1.3243126531
 C       -11.3243319045        6.6237077189       -1.2144020616
 C       -12.2774172327        6.9113100335       -2.3698326213
 C       -11.6462060444        6.6111194431       -3.7218953611
 O       -10.4909510661        6.2319368218       -3.7820589118
 C       -12.5317593511        6.5416468544       -5.0431683296
 C       -13.2561142336        5.0427423222       -5.1994351814
 O       -12.8814520593        4.0578662211       -4.6493774379
 C       -14.4606919078        4.9636207924       -6.1656843340
 C       -13.5628562112        7.6372543402       -4.9951908393
 C       -11.5199252564        6.7162775144       -6.1768076885
 C       -12.1710003209        3.8410338847        1.4502728185
 C       -13.4863373511        5.9628771184        1.0942217986
 C        -8.4052412995        6.4368269977        7.2359207813
 C        -7.7303599262        6.7052139482        4.7979216090
 C       -10.7672944102        0.4263162101        2.7931125786
 C       -11.0667997780       -0.4292871822        5.1897211691
 C        -5.9194363945        2.3132802782       -0.2804344311
 C        -7.8592332590        3.7182175745        0.4428415081
 C        -8.6818796552       -0.8237051888       -5.3034301138
 C        -9.8271039261        0.9744538536       -6.7969660306
 H       -12.4368328720       -0.5336110014       -4.0702449701
 H       -11.0062164975       -1.4206758881       -4.2290635270
 H       -11.6018347902       -0.7947118605       -5.7205037074
 H        -6.5910206408        2.4339596794       -3.8825410870
 H        -6.4926758118        0.7620206708       -4.3424178620
 H        -6.9201584028        0.5040546603       -2.0951820687
 H        -8.5445672646        0.4585812199       -2.6513126914
 H        -8.1080170928        1.8879857394        2.5661062411
 H        -6.5112215300        1.3778728191        2.3320834724
 H        -7.0555518476       -0.8644137909        2.7609175899
 H        -8.5940299317       -0.7408382687        1.8687886158
 H        -8.1339782474        1.6788546804        6.0488980387
 H        -9.7578362770        1.4757023719        6.9060113301
 H        -8.8366777484        3.7576382684        7.4268883353
 H       -10.3641126053        3.8168999048        6.5462593778
 H        -9.6938322914        7.5880748838        3.5519626530
 H       -11.4230852729        7.7649343142        4.1503514954
 H       -11.6741539793        5.2943675751        3.8028242394
 H        -9.8860629199        5.2392956662        3.3058577231
 H       -10.3120870323        6.5960569974       -1.6858237914
 H       -11.2907945175        7.4468006287       -0.4103543811
 H       -12.6538688567        7.8927251135       -2.2683838862
 H       -13.0833857375        6.1887270792       -2.3970003972
 H       -14.3493063775        5.6157995573       -7.0057191388
 H       -15.3913494696        5.2376953159       -5.7490230057
 H       -14.4741542476        3.8962046573       -6.4686192193
 H       -14.1800365618        7.5750403903       -4.0864390709
 H       -14.2505031270        7.5473991435       -5.7939128828
 H       -13.2077811785        8.6948618943       -5.0380255954
 H       -10.6347625219        6.1059773148       -5.9408524805
 H       -11.1305776504        7.7554888392       -6.1468745692
 H       -11.9572757111        6.5750408921       -7.1617048788
 H       -11.1352506912        3.5232010880        1.7970826917
 H       -12.4197879073        3.1828394325        0.6155964358
 H       -12.8944204262        3.7498707614        2.2811644625
 H       -13.3791489688        7.0300570418        0.7726741525
 H       -13.6553161320        6.0433760048        2.1310420081
 H       -14.3633847061        5.4760250887        0.5621939722
 H        -8.2106360215        7.5597183859        7.1781187082
 H        -7.4939544366        5.8929633669        7.5188429682
 H        -9.2724092667        6.2625274258        7.8818424112
 H        -7.6879181585        6.2289876377        3.8404685667
 H        -6.7100445290        6.7024962504        5.1191337961
 H        -7.9215082810        7.7477847408        4.7649788898
 H       -10.8225299137       -0.6015842179        2.3878679853
 H       -10.1660344953        1.0790132697        2.1886367566
 H       -11.8097546623        0.7237645934        2.9074388185
 H       -11.2457806312       -1.3996390516        4.8910196009
 H       -12.0089279710        0.1476161029        5.1067393339
 H       -10.7867476887       -0.3454800884        6.1997790600
 H        -5.4655833899        3.2705849886       -0.6454434984
 H        -5.6273700641        1.7005800519       -1.1306718121
 H        -5.4318216937        2.0056984005        0.6162927909
 H        -7.3318199491        4.6094715286        0.1555889463
 H        -7.5115161570        3.6819393317        1.4105470082
 H        -8.9336195072        3.9700442042        0.3648460028
 H        -8.6149592204       -1.2081915310       -4.2535546694
 H        -7.6781813601       -0.7648998975       -5.6393772439
 H        -9.2093577844       -1.5953003912       -5.9478045701
 H        -9.1427326093        1.6942165904       -7.1895892578
 H       -10.8559687511        1.4089625332       -6.7992092622
 H        -9.8365861269        0.1843160554       -7.4678956073
 Na      -10.7757306054        3.7069418113       -3.4466147462
