117

 C       -11.6076197162       -0.4460113104       -4.8744248227
 C       -10.6697846030        0.6702914515       -4.5226544889
 O       -10.8523485501        1.4181648174       -3.5822786709
 C        -9.3875833957        0.8590542032       -5.5372224054
 C        -8.4943081229        1.9742212836       -4.9504982181
 O        -8.9181615670        3.1471777081       -5.1518348822
 C        -7.1274765806        1.7375712931       -4.1775869786
 C        -7.3523782425        1.1752202126       -2.7603562089
 C        -8.0007335800        2.1902971916       -1.7817202774
 O        -8.7948985818        3.0348909534       -2.0936785048
 C        -7.4704041195        2.2653008971       -0.2684532423
 C        -7.9112948031        0.9833266285        0.6172716703
 O        -8.5080707499        0.1457475086       -0.0162254832
 C        -7.8055138433        0.9527319991        2.1508999627
 C        -8.1305697190       -0.4191398218        2.7520139456
 C        -8.8340140789       -0.2436257041        4.0586911674
 O        -8.3669412863       -0.7250813986        5.1238550295
 C       -10.2958055549        0.3489946949        4.1480382968
 C       -10.1865221559        1.8106146037        4.6206627376
 O       -10.5666293219        2.7224945279        3.8744988479
 C        -9.4766938505        2.0606598989        5.9404311721
 C        -9.4454042514        3.5566018790        6.4067527683
 C        -8.7007992762        4.4685574218        5.4726927313
 O        -8.0918900082        4.0377573213        4.4764147979
 C        -8.6761892845        6.0212235968        5.8756157745
 C       -10.0861508559        6.4332559416        5.6360574060
 O       -10.9559299123        6.2431649013        6.4683259063
 C       -10.5830642600        7.0358302153        4.2699915038
 C       -11.0745853728        5.8651798321        3.3417835601
 C       -10.8722436804        6.0590937920        1.8596627701
 O        -9.9417886682        6.6506825088        1.3697078944
 C       -12.0515716519        5.3205253704        0.9639845813
 C       -11.6701038471        5.2935811401       -0.5656853800
 O       -11.5818095007        4.2045788627       -1.1906193136
 C       -11.4226052563        6.7261638924       -1.1477506304
 C       -12.1772903738        7.0372526014       -2.4780009463
 C       -11.5524977677        6.5486155159       -3.7309292177
 O       -10.4820260026        5.9953169824       -3.7835184563
 C       -12.4252256302        6.6125232638       -5.0339223822
 C       -13.0862924344        5.1006187099       -5.1027303688
 O       -12.6700161737        4.1382643759       -4.5433285926
 C       -14.2520704576        4.8228009872       -6.0553504366
 C       -13.5604283686        7.6287674302       -4.9706762832
 C       -11.5796502669        6.7972168903       -6.3357305923
 C       -12.1970682740        3.8848890798        1.4280297807
 C       -13.3853612431        6.1472477082        1.1780058658
 C        -8.3639300339        6.2533264009        7.4352833327
 C        -7.5642588825        6.7943550282        5.1356569808
 C       -11.0289054735        0.2033957220        2.7664429175
 C       -10.9981770491       -0.5986712695        5.1340604309
 C        -5.8759717265        2.3639653503       -0.2516007906
 C        -8.2713118916        3.4442715280        0.3262952006
 C        -8.6145622094       -0.4429151058       -5.6376368290
 C        -9.9790036719        1.3159661460       -6.9205795145
 H       -12.2364639010       -0.6629151727       -4.0562213529
 H       -11.1324354625       -1.3856239611       -5.1013321123
 H       -12.1465360154       -0.2245417359       -5.8485739290
 H        -6.6506891195        2.7012066943       -4.1126082695
 H        -6.4973948504        0.9765464994       -4.6377428885
 H        -6.3687556798        0.8116713287       -2.4033819303
 H        -7.9949055621        0.2607576127       -2.8261797194
 H        -8.6124706945        1.7506101897        2.3745911243
 H        -6.8772020179        1.3764926456        2.5704411092
 H        -7.2152571263       -0.9294975617        3.0428105778
 H        -8.6231309092       -1.1262278749        2.0028413800
 H        -8.4333614501        1.8313781219        5.7644244323
 H        -9.8664221736        1.3849983055        6.6811034970
 H        -8.9293956566        3.7130144009        7.3718557619
 H       -10.3928050341        4.0140012449        6.6122600115
 H        -9.7646310414        7.5029388351        3.6662376892
 H       -11.3614378992        7.7944359619        4.3684451890
 H       -12.1318804108        5.6926213375        3.5252188786
 H       -10.5327031986        5.0008531937        3.5480387489
 H       -10.3971443642        6.8200879051       -1.1458833835
 H       -11.7637608756        7.4037740390       -0.3546865045
 H       -12.2780531164        8.1428308765       -2.5993412061
 H       -13.1884765583        6.6030895805       -2.3510496562
 H       -14.1317666401        5.3833755879       -6.9432198060
 H       -15.1925078377        5.1430989351       -5.6185323333
 H       -14.3985443757        3.6785733797       -6.1767031533
 H       -14.3297936646        7.2236793257       -4.3139571561
 H       -13.9708301060        7.8918677089       -5.9534873731
 H       -13.2892645342        8.5946112391       -4.4695356894
 H       -10.7245699481        6.0790332605       -6.4090789378
 H       -11.3054071865        7.8648345102       -6.3687666659
 H       -12.2102143546        6.5772053387       -7.1721288569
 H       -11.3181520366        3.3178587928        1.1099081830
 H       -13.1183542673        3.5206556420        1.0894819039
 H       -12.2246224984        3.8356304796        2.5077169537
 H       -13.4420940290        7.1235256606        0.7420544520
 H       -13.6200217566        6.1122384132        2.2098307380
 H       -14.1710957513        5.5916577486        0.5921796619
 H        -8.5186672448        7.3002954761        7.6606919689
 H        -7.3548894617        5.9570954699        7.6418822884
 H        -8.9493574630        5.5423262923        7.9783605700
 H        -7.7736819799        6.8184891685        4.0346994112
 H        -6.5807670004        6.2733536095        5.2111253409
 H        -7.4448922329        7.8754587770        5.4074447561
 H       -11.2866038805       -0.7992141661        2.5674423269
 H       -10.4408770474        0.6890389430        2.0537341972
 H       -12.0281331599        0.7059261509        2.8593013947
 H       -10.8146957234       -1.5965463570        4.7135272255
 H       -12.1524354446       -0.4294309453        5.1604411521
 H       -10.6005150743       -0.6611113906        6.1679437348
 H        -5.4138751268        2.7853046727       -1.1768744458
 H        -5.4135275217        1.3948872506       -0.0129788994
 H        -5.5743243241        2.9169008265        0.5999590765
 H        -8.3508125604        4.3536298048       -0.3155843984
 H        -7.8147941152        3.8666638268        1.1799236319
 H        -9.3070755910        3.1018952143        0.6084327505
 H        -8.2279927612       -0.7142846979       -4.6649950747
 H        -7.7633460998       -0.3901466768       -6.2319908706
 H        -9.2702900596       -1.2291461270       -5.9993631091
 H        -9.3932482685        0.9006255806       -7.7917476193
 H       -10.0309494132        2.4854240471       -7.0451924914
 H       -10.9896245853        0.9662498214       -7.0928627291
 Na      -10.4397210386        3.7805980872       -3.3236554331
