117

 C       -11.5165962214       -0.9594286466       -4.2742253021
 C       -10.8273549323        0.3546270176       -4.4524249583
 O       -11.3078116927        1.3593792857       -3.9463774706
 C        -9.4251176441        0.3855705045       -5.2734896163
 C        -8.6201025370        1.6120028695       -4.6743268723
 O        -8.8843480828        2.7726656200       -4.9149950940
 C        -7.4578084183        1.3425263150       -3.6740790206
 C        -8.0121253088        1.1176012711       -2.2363398513
 C        -8.1755378679        2.4700176180       -1.5430190813
 O        -8.8074627000        3.4427474648       -1.9288996637
 C        -7.3925105814        2.5621585180       -0.1716197139
 C        -7.9437385168        1.2914172065        0.6394909608
 O        -8.7312384535        0.4762423849        0.2109755878
 C        -7.5253482560        1.2126473860        2.0772507838
 C        -7.6839923063       -0.1757922097        2.6495216225
 C        -8.5048626338       -0.2624698557        4.0014602323
 O        -8.0359539710       -0.8455026807        4.9868803633
 C        -9.9664517809        0.4136745224        4.1524914832
 C        -9.8065515284        1.8897180731        4.6461461348
 O       -10.2117811824        2.8469763639        3.9432960655
 C        -9.1739137089        2.0905605088        5.9730336758
 C        -9.2720613833        3.5662037266        6.4616496394
 C        -8.4089212433        4.5309637188        5.6597914943
 O        -7.6510637013        4.1464931087        4.7602566065
 C        -8.5951331969        6.0987205915        5.7996087538
 C       -10.1427175435        6.4334564325        5.5960866797
 O       -10.8969267176        6.4358976570        6.5517594751
 C       -10.6488193058        6.8199820778        4.1761039142
 C       -10.7762195611        5.6285754398        3.1841522905
 C       -11.3498039570        6.1123953003        1.7912421538
 O       -11.1022155719        7.2466760152        1.4155157085
 C       -12.2497244602        5.1815180972        0.7548576749
 C       -11.6975340437        5.2997888122       -0.7527021617
 O       -11.5075745190        4.2577179688       -1.4273347639
 C       -11.5831281136        6.7528941266       -1.3876132990
 C       -12.4603678836        6.9612437808       -2.6464989719
 C       -11.7068621774        6.5347960909       -3.9688387959
 O       -10.6054172580        5.9810862365       -3.9468147459
 C       -12.5683939947        6.5741695872       -5.2405238244
 C       -13.2364854357        5.0718132848       -5.3222562141
 O       -12.7540633649        4.0798774420       -4.8576018805
 C       -14.5375381092        5.0426109877       -6.1063087475
 C       -13.6427288574        7.7246685293       -5.2221801146
 C       -11.7105695849        6.5640758281       -6.5152320549
 C       -12.0981370567        3.7453321430        1.3075487528
 C       -13.7064869581        5.7735367069        0.8341122564
 C        -8.1465638182        6.5915858957        7.2343619865
 C        -7.7268412941        6.8062540160        4.7373154492
 C       -10.7254729150        0.5165247979        2.8458153678
 C       -10.7837615101       -0.3216544302        5.2829828272
 C        -5.8582880737        2.3664617763       -0.3797033077
 C        -7.4677669669        3.8872105070        0.6785042721
 C        -8.5335362307       -0.9018442806       -5.1279049269
 C        -9.7428002917        0.5820795742       -6.7938091801
 H       -12.6197091168       -0.8522220230       -4.3915486831
 H       -11.2990193170       -1.4091415233       -3.3574233044
 H       -11.3080480440       -1.7518090143       -5.1131271262
 H        -6.8305732685        2.2277348146       -3.6833437492
 H        -6.7247031325        0.6397874670       -4.0357065163
 H        -7.3495152997        0.5193860091       -1.6350356326
 H        -8.9454630959        0.5836452581       -2.2735526198
 H        -8.0727732433        1.9364125220        2.6411071338
 H        -6.4665089484        1.5251058088        2.2047108494
 H        -6.7122224164       -0.5409236149        2.9609413648
 H        -8.2590459233       -0.8475499912        2.0206423739
 H        -8.0970647083        1.7438899004        5.9091583369
 H        -9.5898339978        1.5328167924        6.7427613818
 H        -8.9411638195        3.5688582587        7.4804640454
 H       -10.3147660111        3.9178601727        6.4001724481
 H        -9.9497950315        7.5333993082        3.8881284266
 H       -11.6163070850        7.2494107849        4.3226746013
 H       -11.4237586266        4.9745918918        3.6834327290
 H        -9.7994763621        5.1402068468        2.9778948570
 H       -10.5369362131        6.8412319772       -1.7064177456
 H       -11.7624420258        7.4920043280       -0.5956762766
 H       -12.8672544042        7.9960653847       -2.6768308203
 H       -13.3345475363        6.2453154210       -2.5710183563
 H       -14.4636864278        5.5822344776       -7.1083282441
 H       -15.2925033802        5.6797898986       -5.5895318628
 H       -14.8294856941        4.0179122411       -6.3506810014
 H       -14.5327489652        7.5723179600       -4.5944671846
 H       -14.0905183924        8.0480784664       -6.1254467203
 H       -13.1515003019        8.6338814869       -4.8168742733
 H       -11.2754060752        5.6007474178       -6.5312841985
 H       -10.8125516323        7.1428786605       -6.4389573778
 H       -12.2673734544        6.8913923133       -7.3881462652
 H       -11.0582552052        3.4198981434        1.3082698058
 H       -12.4719212848        2.9824741720        0.6468134825
 H       -12.5083612049        3.7042673977        2.2844189627
 H       -13.5052809011        6.8240989696        0.5716091862
 H       -14.1495215668        5.8648303892        1.8053810091
 H       -14.4240823916        5.2579794231        0.2345736306
 H        -7.8542155393        7.6449603716        7.1308281076
 H        -7.2838494236        6.0348003509        7.5489931335
 H        -8.9818019675        6.6654803021        7.8251379806
 H        -7.9561255976        6.3959947742        3.7404576408
 H        -6.6327295243        6.5519169247        4.8498797212
 H        -7.7071831321        7.8975791623        4.9336044616
 H       -10.8707375261       -0.5049076263        2.3657098000
 H       -10.2771885329        1.1541040852        2.0624669625
 H       -11.6405623822        0.9774108146        3.1602548617
 H       -11.4430452105       -1.0848223004        4.8589537245
 H       -11.3591621935        0.3699297073        5.9312744948
 H       -10.0060356318       -0.7092960905        5.9911294681
 H        -5.3102137391        3.1558478113       -0.8798069138
 H        -5.5993100891        1.5129962989       -0.9745362088
 H        -5.4469236135        2.3382141611        0.6212032884
 H        -7.2602594204        4.8052978311        0.0733046347
 H        -6.6651809865        3.8901664254        1.4303895683
 H        -8.4367998842        4.2088698936        1.1273613208
 H        -8.1923138196       -0.9882318446       -4.1113424563
 H        -7.7339821067       -0.9116246005       -5.8409988275
 H        -9.0960770821       -1.8164357044       -5.3209140174
 H        -9.6068134446        1.5991956823       -7.1917984319
 H       -10.7489744117        0.2479884978       -6.9715505450
 H        -9.1188971835       -0.0793662834       -7.3829020329
 Na      -10.5830539745        3.7626607810       -3.4826188312
