117

 C       -11.6407613930       -1.1190163369       -4.0545895375
 C       -10.9897776107        0.2273275840       -4.2311044866
 O       -11.4448427565        1.2731491364       -3.9064632057
 C        -9.5950813837        0.2390200092       -5.0944459968
 C        -8.9359200855        1.6087087062       -4.8026533331
 O        -9.1936397204        2.6229674286       -5.4404298136
 C        -7.8715905322        1.6323405378       -3.6544205563
 C        -8.1768289150        1.3154783534       -2.1939601423
 C        -8.1853336948        2.7041831241       -1.3455678951
 O        -8.7944069568        3.6401519535       -1.7269343876
 C        -7.3110333631        2.7833523623        0.0105239204
 C        -7.9371324449        1.6985300972        0.9977597019
 O        -8.8312950327        0.9876494114        0.5529806453
 C        -7.2771150503        1.4440271490        2.3634469526
 C        -7.4963554801        0.0013026038        2.9572500899
 C        -8.3220040667       -0.1088197721        4.3594441446
 O        -7.7981441028       -0.4376264486        5.3636528789
 C        -9.8172906732        0.3315546154        4.3949069872
 C        -9.6938383955        1.8531971625        4.6789434192
 O       -10.1151607435        2.6315575387        3.8849819545
 C        -8.9120694873        2.2174746053        5.9688825200
 C        -8.8570216654        3.7159183820        6.4413401524
 C        -8.1305522626        4.5968950129        5.4033212408
 O        -7.3798651677        4.2507299834        4.5410162573
 C        -8.5302921835        6.1646485020        5.5073156861
 C       -10.0936495117        6.2627605062        5.2896544294
 O       -10.8536396796        6.0202466728        6.2045295509
 C       -10.5811249273        6.7911435024        3.9778936302
 C       -10.9011703068        5.7168412850        3.0194575819
 C       -11.5566134936        6.2791587473        1.6976445608
 O       -11.6054871222        7.4591252184        1.4689921294
 C       -12.1996191577        5.1846685016        0.6988129775
 C       -11.7002879932        5.3613789295       -0.7810242335
 O       -11.6319768211        4.3340434079       -1.4246531768
 C       -11.6615196070        6.7925365510       -1.4281554219
 C       -12.4353869055        6.9219253339       -2.7237262100
 C       -11.7797053221        6.4057257292       -3.9862412100
 O       -10.6258397086        6.0739862266       -3.8765334677
 C       -12.5352137210        6.3404592335       -5.3652548932
 C       -13.1450820523        4.8990829473       -5.4722019541
 O       -12.5271430414        3.8960938641       -5.1222608861
 C       -14.5460805539        4.7697511275       -6.0079417619
 C       -13.5861683439        7.4810492144       -5.4250096831
 C       -11.5517243685        6.3083256197       -6.5851002079
 C       -11.9165717213        3.7019144223        1.1063000920
 C       -13.7038809036        5.3885141440        0.5920723806
 C        -8.1761250129        6.8167323491        6.8601623061
 C        -7.7482886772        6.8284963579        4.2791981405
 C       -10.5861510905        0.0679618337        3.0616621105
 C       -10.6333104065       -0.3299952727        5.5492219579
 C        -5.8442754000        2.3529586437       -0.1951140276
 C        -7.3219725863        4.2726449606        0.7016727027
 C        -8.6627568276       -0.9013714627       -4.7155782247
 C       -10.0550848347        0.0657452999       -6.5390551755
 H       -12.6048783535       -1.0534177790       -3.5286392505
 H       -10.9427545628       -1.9369868446       -3.6119945514
 H       -12.0115978761       -1.4824951084       -4.9423393899
 H        -7.3859657436        2.6064586197       -3.6927744101
 H        -7.1128332913        0.9091936493       -4.0013591495
 H        -7.5442758512        0.5515657121       -1.8083748993
 H        -9.2093663945        0.9838112217       -2.1151341393
 H        -7.7774908629        2.2213486509        2.9422784173
 H        -6.2126022188        1.6532534767        2.3512208258
 H        -6.5846984448       -0.4442017720        3.2599054676
 H        -8.0198051880       -0.5901780734        2.1630508765
 H        -7.8604082893        1.8868030060        5.8714611051
 H        -9.2441116625        1.6087578828        6.8616436204
 H        -8.2826270970        3.8616923196        7.3410701877
 H        -9.8623733619        4.0950559886        6.4936376406
 H        -9.9405410714        7.4808171702        3.5139523199
 H       -11.4767546843        7.3064352809        4.2040226543
 H       -11.6076797501        5.0006023949        3.4474217134
 H       -10.0509920346        5.1034199254        2.7277717771
 H       -10.6333142835        7.1216393165       -1.6145162328
 H       -12.0883216393        7.5407552920       -0.7048716962
 H       -12.7322980350        7.9843714585       -2.8017783874
 H       -13.4496256644        6.4305341988       -2.6837153463
 H       -14.7615130982        5.1817002096       -7.0160633673
 H       -15.2093667332        5.2962746978       -5.2363271313
 H       -14.8326630391        3.7224465476       -6.1333345173
 H       -14.3414339769        7.5026210483       -4.6616475933
 H       -14.1514649934        7.4982472213       -6.3718122855
 H       -13.2244563683        8.5059812887       -5.4173195667
 H       -10.5682775229        5.8064846159       -6.3372505884
 H       -11.3222307802        7.3409007046       -6.9071404647
 H       -12.0467838582        5.7874725460       -7.3888792965
 H       -10.9433050659        3.6044464650        1.5762578267
 H       -11.9546093587        3.1083688898        0.2131098017
 H       -12.6460454510        3.1655924192        1.7291473523
 H       -14.0031182147        6.3870117678        0.3421357278
 H       -14.1443914994        5.1304016669        1.5336527780
 H       -14.1228626683        4.6566264189       -0.1653334233
 H        -8.2987962392        7.8857502676        6.7602852711
 H        -7.1545666551        6.6095104805        7.0806373352
 H        -8.9464080189        6.4743104698        7.5941306292
 H        -7.9503087096        6.3461949477        3.2892140967
 H        -6.6790508137        6.7022142231        4.5804170434
 H        -8.0492012343        7.9083455825        4.1466095646
 H       -10.4676969813       -0.9406694750        2.6779502496
 H       -10.2137355649        0.7648053703        2.3072145139
 H       -11.7078927210        0.3017173961        3.1151174453
 H       -10.6085942386       -1.4316785240        5.3907538748
 H       -11.7126766054       -0.0634167631        5.3162221841
 H       -10.3511701366       -0.1212707648        6.5983186434
 H        -5.3480620589        3.1251911188       -0.8206803011
 H        -5.8372546160        1.3465806696       -0.6494672643
 H        -5.2095377940        2.2660763737        0.6670562958
 H        -6.5052524087        4.8815547878        0.2838208466
 H        -7.3726702841        4.2909039693        1.7915690116
 H        -8.2536335974        4.8636233614        0.5192890315
 H        -8.4308164849       -0.9004950520       -3.6512825733
 H        -7.7538121053       -0.8290742673       -5.2512896370
 H        -9.2070658647       -1.8086984878       -4.9584211440
 H       -11.1198527152       -0.0546203718       -6.5497418848
 H        -9.6762383828       -0.8309041535       -7.0375157177
 H        -9.7654099680        0.9586032983       -7.0924681300
 Na      -10.7634995646        3.6411508451       -3.5417578298
