117

 C       -11.5013496411       -1.0253970863       -4.1823202558
 C       -10.8402479620        0.3084830264       -4.4490342372
 O       -11.3633506403        1.3296966162       -4.0125536800
 C        -9.4281707319        0.3534096513       -5.1970969985
 C        -8.6512959270        1.5466367912       -4.6558564946
 O        -9.1327055761        2.6732609144       -4.9493972484
 C        -7.5379356355        1.4256327576       -3.6567544168
 C        -8.0550200552        1.2165975931       -2.2488147815
 C        -8.1225322673        2.5682445840       -1.4589126985
 O        -8.7341846414        3.5080325881       -1.9134325683
 C        -7.3386927211        2.5885351996       -0.0435414275
 C        -7.9549977488        1.4015510790        0.8071540677
 O        -8.7194652726        0.6158843126        0.2616869043
 C        -7.4038810606        1.3118233182        2.2189214838
 C        -7.6497763101       -0.0689287201        2.7364367839
 C        -8.5499909425       -0.1995752730        4.0547096843
 O        -7.9679666263       -0.7515908082        4.9836895227
 C        -9.9818381095        0.4128958875        4.2035110382
 C        -9.7192987472        1.8702403999        4.6466623376
 O       -10.1639760084        2.7958312181        3.9553912731
 C        -9.1261475874        2.1470084260        6.0762735138
 C        -9.2139764197        3.6968000781        6.4289310512
 C        -8.3349742998        4.5591835634        5.5509786688
 O        -7.4983528855        4.1560921594        4.7518723687
 C        -8.5752535071        6.1212378891        5.7625971609
 C       -10.1281140768        6.4158527419        5.6380222781
 O       -10.8749955902        6.3456377329        6.5811216360
 C       -10.6755045642        6.7974428561        4.2038254053
 C       -10.8302220599        5.6911366030        3.1794174686
 C       -11.3682994767        6.1562731655        1.7737205706
 O       -11.2914943392        7.2969135763        1.4281521081
 C       -12.1568416889        5.1839184920        0.8038209755
 C       -11.7635844558        5.3809184808       -0.7311215430
 O       -11.4992574937        4.3374181077       -1.3542689460
 C       -11.6264173475        6.6925054603       -1.4729164341
 C       -12.4097146654        6.8987818396       -2.7177648554
 C       -11.7947944337        6.4348329584       -4.0076719591
 O       -10.6696819043        6.0041937676       -4.0241122358
 C       -12.5877495801        6.5316849780       -5.3271278455
 C       -13.2745763862        5.1286272059       -5.3470799505
 O       -12.6871971495        4.1827394792       -4.9074212666
 C       -14.6278991797        4.9732740652       -6.0489987031
 C       -13.5841382400        7.6712573621       -5.3815797700
 C       -11.6806871024        6.5986721174       -6.5891086458
 C       -12.1705706318        3.6670919036        1.1182731621
 C       -13.6650462606        5.6571234636        0.8174659049
 C        -8.0651378507        6.4908569626        7.2118137222
 C        -7.7096911102        6.8724679596        4.7565151244
 C       -10.7935616876        0.4254271839        2.8385545364
 C       -10.7366488665       -0.3360782296        5.2927856817
 C        -5.8539007479        2.2928999797       -0.4419745313
 C        -7.4961636627        3.8163060189        0.7034485679
 C        -8.6418468075       -0.9335207569       -5.0254556833
 C        -9.7105598823        0.6114678475       -6.7441817173
 H       -12.5751280059       -1.0455328590       -4.2951782100
 H       -11.1780085835       -1.4280638351       -3.2212397566
 H       -11.2306878568       -1.7908658374       -4.9376684890
 H        -6.8257144653        2.2545091207       -3.7796636299
 H        -6.8597416232        0.5814363794       -3.9068324197
 H        -7.4843490577        0.4769254743       -1.7691529911
 H        -9.0526906307        0.8163883643       -2.3537947482
 H        -7.7349040525        2.0796624759        2.8656848235
 H        -6.3510669920        1.4712066841        2.1052475636
 H        -6.7882388254       -0.4802604913        3.0821347751
 H        -8.1771990630       -0.6492248867        1.9889776097
 H        -8.0157375864        1.8482052453        6.1679660228
 H        -9.6030803780        1.6268433783        6.9207648458
 H        -8.9185096561        3.8151701978        7.4755164379
 H       -10.2250493608        4.0784375632        6.2529268769
 H       -10.0012033231        7.5521331292        3.8555707534
 H       -11.6366228063        7.2116133560        4.4089616045
 H       -11.4429731102        4.9062325828        3.6655352089
 H        -9.8271138473        5.2566628199        2.9033519201
 H       -10.5303639847        6.6308423819       -1.6985494871
 H       -11.8038349841        7.5928554245       -0.7567357840
 H       -12.5187282690        7.9811684551       -2.8363384313
 H       -13.4358930164        6.5123116441       -2.5262084005
 H       -14.5415325783        5.3115657956       -7.0552286274
 H       -15.4008787705        5.6087466046       -5.6601191516
 H       -14.8726890354        3.8400325590       -6.1973862945
 H       -14.5408319804        7.3914805631       -4.9905674986
 H       -13.8807232256        8.0247632837       -6.3416186330
 H       -13.3114199314        8.5940383479       -4.8499198904
 H       -11.0043290240        5.7711548240       -6.5992531408
 H       -10.9906673568        7.4099737078       -6.4576398065
 H       -12.2439091803        6.7905774521       -7.4369701761
 H       -11.2958927291        3.1187928123        0.7019696419
 H       -12.8965879899        3.1863873848        0.4944699383
 H       -12.3227126745        3.4173878700        2.1952027722
 H       -13.7214922854        6.6988177884        0.5469993523
 H       -14.0737055721        5.6293136425        1.7838198103
 H       -14.3239206261        4.9251135749        0.2717424394
 H        -8.1344028240        7.5654092293        7.3385124407
 H        -7.0549260020        6.1995163102        7.2263320108
 H        -8.7664835171        6.1552808976        7.9420247680
 H        -8.1662727788        6.6153531744        3.7965959227
 H        -6.6731331004        6.4800516286        4.6241911052
 H        -7.5674348899        7.9253200483        5.0338955759
 H       -10.8246309744       -0.6180933735        2.4698617717
 H       -10.3390114172        1.0092181054        2.0306495405
 H       -11.8161000979        0.8899259001        3.0682755236
 H       -11.1794126924       -1.1689548197        4.8420202862
 H       -11.5711491299        0.3363702344        5.6247345579
 H       -10.1686659261       -0.5289175163        6.1609332424
 H        -5.5255971575        2.8448357311       -1.3518434480
 H        -5.7731384906        1.2715895847       -0.7995132904
 H        -5.1417879747        2.5528101383        0.2903237410
 H        -7.6565909281        4.8169070100        0.2359448689
 H        -6.6701282846        3.9157403014        1.3741533825
 H        -8.4340290575        3.8007972242        1.3616751558
 H        -8.3485959125       -1.1482921103       -3.9702164280
 H        -7.8392503691       -0.9663691143       -5.7074007669
 H        -9.3093108724       -1.7761759848       -5.3625485637
 H       -10.0178728503        1.5851959733       -6.9513795600
 H       -10.4587741931       -0.0956072045       -7.1276293862
 H        -8.8463283259        0.4312003650       -7.2219660187
 Na      -10.5005772764        3.5999286192       -3.5974512759
