117

 C       -11.9329700039       -0.8140211167       -3.8819691722
 C       -10.9572472453        0.3659508215       -3.8315718228
 O       -11.0619439161        1.2387247417       -3.0384609707
 C        -9.6792486592        0.2712893363       -4.7664986336
 C        -9.0217840101        1.6310368804       -4.6798701052
 O        -9.4528503537        2.5975491638       -5.2924896450
 C        -7.8309187597        1.7779728945       -3.6889361449
 C        -8.0945451936        1.5250680531       -2.2264633893
 C        -8.3225954578        2.8218038905       -1.4387592748
 O        -9.0364925650        3.7498722593       -1.7054795474
 C        -7.4748475668        2.8741823756       -0.1197584137
 C        -8.0963769659        1.6732500343        0.7477898263
 O        -8.9647582449        0.9417646506        0.3096233120
 C        -7.5670092297        1.5430675591        2.1786890933
 C        -7.4670172109        0.1044507062        2.8127070893
 C        -8.0048261934       -0.0914416255        4.2309545847
 O        -7.3421888314       -0.5844570359        5.1018960211
 C        -9.5031044686        0.3904311803        4.6479491903
 C        -9.5916257176        1.9360780824        4.9899315526
 O       -10.2995660589        2.6860646739        4.3849137591
 C        -8.7381193913        2.4228234363        6.1393355378
 C        -8.8221536591        3.9348011074        6.2671491023
 C        -8.2739586631        4.6707596275        5.0256390707
 O        -7.6485453524        4.1813174464        4.1307149828
 C        -8.5072948699        6.2507272043        5.0821070671
 C       -10.0245729024        6.4092565350        4.9543315173
 O       -10.8008633075        6.0543910195        5.8462074982
 C       -10.5817775625        6.9105383854        3.6086244154
 C       -10.9629183478        5.7806408091        2.7057744231
 C       -11.7399124376        6.2356574108        1.4471972726
 O       -11.9780346897        7.4423264672        1.3492322348
 C       -12.3749754617        5.1323013511        0.5555641896
 C       -11.9473752799        5.2136348247       -0.9669655019
 O       -11.8028219972        4.2076857337       -1.6042419977
 C       -11.6830346838        6.6670331417       -1.4805891760
 C       -12.3921822942        6.9953814166       -2.7692635698
 C       -11.6368761427        6.3051498174       -3.9828920309
 O       -10.5495653219        5.7921866087       -3.7324572859
 C       -12.3440462182        6.1232125168       -5.3289570502
 C       -13.0252629572        4.6812643748       -5.3169730084
 O       -12.4772685563        3.7150409182       -4.7454611790
 C       -14.3247203325        4.4481949746       -5.9724533072
 C       -13.5000461340        7.1288765735       -5.5555958532
 C       -11.2914085365        6.2434031623       -6.4272191306
 C       -11.9581573063        3.6067015395        0.9065342830
 C       -13.9612432232        5.2620076159        0.7656881810
 C        -8.1244446537        6.7813883154        6.5119115681
 C        -7.7263647282        6.9010760568        3.9761200892
 C       -10.5298414667        0.3113121830        3.4563098989
 C        -9.9942763942       -0.3477186024        5.9341004940
 C        -6.0116351058        2.4336669159       -0.3452756099
 C        -7.5423552722        4.2412374303        0.6734299349
 C        -8.7772933888       -0.9292910728       -4.3161293096
 C       -10.1254799435        0.0360931323       -6.2346237211
 H       -12.9754258000       -0.4831434649       -4.0743663855
 H       -11.9877865110       -1.4125767138       -2.8993940723
 H       -11.6880891111       -1.5413558998       -4.6113577955
 H        -7.3850515766        2.7544626503       -3.7415627280
 H        -7.1622448979        0.9861600652       -4.0148494204
 H        -7.2398014854        1.0194625071       -1.7648740382
 H        -8.9963352487        0.8885793951       -2.0420671076
 H        -8.1929893411        2.2175960418        2.8400070987
 H        -6.5287213723        1.9424652193        2.2213289044
 H        -6.4017392633       -0.1754379950        2.8582609077
 H        -7.9247778889       -0.7530754111        2.2146697755
 H        -7.7619647681        2.0432017037        6.2220906786
 H        -9.1459158044        2.0082930704        7.1209733762
 H        -8.2110406710        4.2908006133        7.0939593367
 H        -9.8495075428        4.2491960625        6.3755556526
 H        -9.9015134700        7.6007338123        3.1350443259
 H       -11.4371296928        7.5408962450        3.7309906056
 H       -11.6313811090        5.0663982261        3.1839350528
 H       -10.1203446089        5.1535048981        2.4792537915
 H       -10.6330480947        6.6603970158       -1.6584946061
 H       -11.8603445791        7.4051195266       -0.7378200784
 H       -12.4464662810        8.0721904951       -2.9753306045
 H       -13.4563311421        6.7007737370       -2.7043505359
 H       -14.4702625517        5.0278704896       -6.9236536794
 H       -15.1353775138        4.7131921854       -5.2168599837
 H       -14.4856261284        3.4452252324       -6.1391468290
 H       -14.1280464754        7.1507048400       -4.6723166682
 H       -14.1675845759        6.9598383974       -6.4353188862
 H       -13.2436809622        8.1788289635       -5.6348657327
 H       -10.7032578632        5.3077336465       -6.4319877760
 H       -10.7460106169        7.1805498465       -6.2441532678
 H       -11.7231205737        6.2259218451       -7.4344700602
 H       -10.9500927305        3.5180982508        0.6256707301
 H       -12.6140037627        2.9039678559        0.4596927915
 H       -11.9740136401        3.2649508309        1.9318596936
 H       -14.3530769728        6.2285145489        0.5593035957
 H       -14.1407681625        5.0278271248        1.8176184830
 H       -14.4893827452        4.6095858127        0.0405834613
 H        -8.3429511058        7.8255376633        6.5233410720
 H        -7.0701751310        6.6211403800        6.7211869578
 H        -8.6439747381        6.1171793435        7.2627331478
 H        -8.1098277909        6.4938264784        3.0695023898
 H        -6.7313004470        6.5700223383        4.1093147166
 H        -7.8987204923        7.9513710644        3.8944265272
 H       -10.6379489251       -0.5937629444        2.9789811702
 H       -10.2396032385        1.0376576574        2.7254689072
 H       -11.5432849366        0.5565140085        3.7229777647
 H       -10.5123720337       -1.2769584679        5.5838675400
 H       -10.7037352803        0.2851139791        6.4576626747
 H        -9.1668158540       -0.6978133772        6.5498377785
 H        -5.5907481126        2.9836844481       -1.1949763218
 H        -5.7992867119        1.3546483793       -0.3185726807
 H        -5.4825642852        2.7042480376        0.5646562953
 H        -7.1865811185        5.0892769244        0.1654789061
 H        -7.0442845283        4.2212312124        1.6680638763
 H        -8.5500009008        4.4191801512        0.9525389118
 H        -8.5426928838       -0.9528833373       -3.2600822195
 H        -7.8280349205       -0.8333599868       -4.8410663527
 H        -9.2910961095       -1.8127451044       -4.6276575640
 H       -10.1349139029       -1.0641000092       -6.4678462010
 H        -9.4796282798        0.5915231226       -6.9163776206
 H       -11.2312701394        0.4676360617       -6.3223146830
 Na      -10.4732174942        3.7113268103       -3.4305963103
