117

 C       -11.9468962873       -0.7488586748       -3.8044963520
 C       -10.9205858457        0.3410877317       -3.7497756553
 O       -11.0276727792        1.2630794412       -2.9080557797
 C        -9.7439294267        0.2807332851       -4.7585295730
 C        -8.9894351039        1.6183379649       -4.6860572795
 O        -9.3819272100        2.6063013786       -5.2767421318
 C        -7.7467587306        1.7885229883       -3.7834388481
 C        -8.1111613318        1.5803567769       -2.2475984212
 C        -8.2043871716        2.8508933005       -1.4169278762
 O        -8.9292830044        3.8234955362       -1.7564765166
 C        -7.4348048727        2.8535677872       -0.0428817123
 C        -8.0798052149        1.6754781593        0.7852427438
 O        -8.8929719918        0.9295052148        0.3024177963
 C        -7.5872929055        1.5712010541        2.2289532483
 C        -7.5832438475        0.0873967199        2.7429522485
 C        -8.0179579751       -0.0371871676        4.2291917514
 O        -7.2675174299       -0.5779044458        5.0559220247
 C        -9.4810790587        0.4220476926        4.6661662110
 C        -9.5206874576        1.9150423660        5.1123780176
 O       -10.2882488884        2.6863323906        4.5048196175
 C        -8.6567565687        2.3945868530        6.2392625475
 C        -8.6782390858        3.9255075717        6.3067315785
 C        -8.2282448315        4.6853396524        5.0242844471
 O        -7.7471568972        4.2004918056        3.9887378244
 C        -8.4937507082        6.2248698105        5.0216816606
 C       -10.0517088231        6.4833413316        4.8758357164
 O       -10.7938329678        6.2327517973        5.8078986211
 C       -10.5865391804        6.9467534872        3.5363460472
 C       -10.9363426893        5.7343221153        2.7229391019
 C       -11.8408785932        6.1452207255        1.5236851664
 O       -12.0749552643        7.3412391911        1.3601210012
 C       -12.4342537545        5.0980341555        0.5474951959
 C       -12.0589651381        5.2842429285       -0.9593784080
 O       -11.9741588208        4.2731540037       -1.6265890294
 C       -11.7142089444        6.6592174991       -1.4956970003
 C       -12.3372302627        6.9212380898       -2.8201229409
 C       -11.6208836211        6.2169083523       -3.9769439002
 O       -10.4630663940        5.9295139258       -3.7947151634
 C       -12.3970262989        6.0688097595       -5.3135510975
 C       -12.9891840453        4.5925110377       -5.3067030789
 O       -12.3970086435        3.7361228984       -4.6794945536
 C       -14.2787111807        4.2942581854       -6.0219737550
 C       -13.3980647176        7.1831103188       -5.6526545724
 C       -11.3546422677        6.1692321533       -6.4978796453
 C       -12.0277406111        3.6861230474        0.9663595791
 C       -13.9906235002        5.1998140488        0.7175632521
 C        -8.1112645314        6.8854800476        6.4414068896
 C        -7.6600367560        6.9111290871        3.9138671155
 C       -10.4666512007        0.1466436727        3.5660537861
 C        -9.9633361692       -0.3860034976        5.9059251093
 C        -5.9790072021        2.4964470483       -0.2806448498
 C        -7.6936748995        4.1990306701        0.5859228631
 C        -8.8197825495       -0.8681874858       -4.2098077638
 C       -10.2901379796       -0.0432797586       -6.2588841659
 H       -12.8388349033       -0.2664853064       -4.2558893033
 H       -12.3018626021       -1.1213424181       -2.9012038671
 H       -11.6536328090       -1.6766218737       -4.4407800739
 H        -7.3410297222        2.7855916572       -3.9468724585
 H        -7.0468907823        0.9873709184       -4.0091362393
 H        -7.4235678925        0.8877567056       -1.7579789384
 H        -9.0916255392        1.1694976659       -2.1501401358
 H        -8.3387609252        2.0946377725        2.8551780187
 H        -6.6643088514        2.0785482574        2.3689037103
 H        -6.6371394213       -0.4923284537        2.5206603036
 H        -8.3196986846       -0.4904130217        2.2371288970
 H        -7.6378182452        1.9758588912        6.2831069664
 H        -9.0172416509        1.9899296206        7.2646303425
 H        -7.9239392216        4.2811068288        7.0239375521
 H        -9.6317520174        4.3498102468        6.5682255626
 H        -9.9645068780        7.6561241167        3.0700392781
 H       -11.4627808371        7.4886047245        3.6626799470
 H       -11.3986340042        4.9005227437        3.3074233868
 H       -10.0577937458        5.2510718009        2.3480692855
 H       -10.5656356292        6.6870968134       -1.5209349400
 H       -12.0420837258        7.4264832026       -0.8049127182
 H       -12.2536686382        8.0083768087       -3.0837293699
 H       -13.4221738812        6.7519821335       -2.7554272690
 H       -14.3045655196        4.6712165047       -7.0766696230
 H       -15.1003431312        4.7750494856       -5.4535378662
 H       -14.5542163895        3.2083533560       -5.9250911826
 H       -14.1172850349        7.4832721941       -4.8589474186
 H       -14.0212303233        6.8531740771       -6.5049600025
 H       -12.9762359238        8.1318809362       -5.9462323869
 H       -10.5927296643        5.4153619872       -6.3554336147
 H       -11.0427235014        7.2053801805       -6.5510739704
 H       -11.7990495487        5.8366032272       -7.4737652827
 H       -10.9816190266        3.5480895914        0.9326937978
 H       -12.5984371145        2.9215655837        0.4102140048
 H       -12.3177631545        3.4761850242        1.9540606901
 H       -14.3464910870        6.2246854721        0.6980891282
 H       -14.2099574445        4.7723819144        1.7239927105
 H       -14.4944968758        4.7441100541       -0.0670947636
 H        -8.3176165879        7.9220728566        6.4188190931
 H        -7.0501384532        6.6914931834        6.6404408632
 H        -8.5644325470        6.2830311049        7.1861292225
 H        -7.8847043506        6.4141940393        2.9472867001
 H        -6.6033933355        6.8013584611        4.1608754259
 H        -8.0245321135        7.9386808717        3.7940714589
 H       -10.3980613114       -0.9339346777        3.3008476113
 H       -10.2766927944        0.7006601500        2.6329935764
 H       -11.4860530778        0.2544078311        3.7747000031
 H       -10.1979341618       -1.4698975164        5.6564264808
 H       -10.8344513261        0.1350281185        6.2707383800
 H        -9.1517159625       -0.4098428125        6.6980667406
 H        -5.7820252845        2.8181061387       -1.2758346108
 H        -5.7353105558        1.4381313643       -0.1098987484
 H        -5.2657103324        2.9820007361        0.4497387207
 H        -7.6953485123        5.0026065386       -0.1625079552
 H        -6.9304202864        4.5285723703        1.3450087111
 H        -8.6519242079        4.2488869512        1.0904784922
 H        -8.7963615074       -0.8673582253       -3.1467253065
 H        -7.7807737378       -0.6743568572       -4.5577816942
 H        -9.1409243053       -1.8000058146       -4.5618808922
 H        -9.9959345387       -1.0643126600       -6.5419437915
 H        -9.8846746383        0.7003986935       -6.9508519322
 H       -11.3614610892        0.0140814649       -6.2726999337
 Na      -10.6051731612        3.6469238794       -3.3985318368
