117

 C       -12.1250521201       -0.7141835177       -3.4332021374
 C       -11.1019982205        0.3872101736       -3.5705648289
 O       -11.2226287249        1.3849571708       -2.8482954464
 C        -9.9000696020        0.2461440263       -4.5948111568
 C        -9.0594040151        1.6172886702       -4.5228675233
 O        -9.4815013615        2.5603436405       -5.1391886328
 C        -7.6564365119        1.7332182462       -3.9105767004
 C        -7.4975279114        1.6394455299       -2.3529236900
 C        -7.8455121083        2.8876311893       -1.5304230848
 O        -8.5669172343        3.8100643919       -1.9406103344
 C        -7.4152750037        2.9641982432       -0.0463767348
 C        -7.9471514908        1.6457515781        0.6995392554
 O        -8.6796666293        0.8713842537        0.1324599430
 C        -7.6809421083        1.6021523301        2.2340271825
 C        -7.7720315919        0.1641563170        2.7866864633
 C        -7.9595554112        0.0492588966        4.3285834566
 O        -7.0600627745       -0.2013099487        5.1378401593
 C        -9.4017059783        0.2786645787        4.9743387745
 C        -9.3385265840        1.8970430421        5.1674568161
 O       -10.3282960532        2.5645409132        4.8704235522
 C        -8.1345172577        2.4796257271        5.8571605372
 C        -8.3952168077        3.9800444846        6.1606738088
 C        -8.2507064222        4.8110239117        4.8747155706
 O        -8.2143414715        4.2362017549        3.7608823283
 C        -8.3193569587        6.3523830006        4.9723972482
 C        -9.9146981090        6.6735130656        4.8434943219
 O       -10.5611135654        6.7557645496        5.8298696390
 C       -10.5713150733        6.9000458424        3.4613904562
 C       -11.1464521896        5.7493981405        2.6223091443
 C       -12.1476611210        6.1607660866        1.4994676203
 O       -12.6229308066        7.2596131815        1.5284295151
 C       -12.7645332930        4.9297682307        0.4749294683
 C       -12.3633772050        5.1447619209       -1.0114754068
 O       -12.3631036062        4.1455916618       -1.7213667446
 C       -11.9103112403        6.5346005352       -1.6256100112
 C       -12.4320018014        6.8552433134       -3.0285376428
 C       -11.5821144482        6.2618936864       -4.1450133896
 O       -10.4111714440        6.0722554000       -3.9748134208
 C       -12.2492252034        5.8680231984       -5.4719407365
 C       -12.9592861990        4.3579852689       -5.3484814834
 O       -12.6025566597        3.4582209464       -4.6692120142
 C       -14.1781301630        4.1357180825       -6.2474015857
 C       -13.2035659389        7.0160283218       -5.8225241234
 C       -11.1626669986        5.6892818708       -6.6098115813
 C       -12.3106965562        3.5549629298        0.8661951994
 C       -14.3177954587        5.1881601059        0.5981538526
 C        -7.6930825347        6.9514032395        6.2872696495
 C        -7.5088889413        6.8762041772        3.7134973441
 C       -10.6675528649       -0.0426238851        4.1361647660
 C        -9.4252886116       -0.4951198908        6.3793136234
 C        -5.7924597875        2.9423014097        0.0369060666
 C        -7.9484341295        4.2896438725        0.5756816303
 C        -9.0273684003       -0.9464997335       -4.1740934510
 C       -10.5233272613        0.0564668408       -5.9509513855
 H       -12.5651379639       -1.0320444389       -4.4014437609
 H       -13.0279801798       -0.4453973767       -2.9541049088
 H       -11.6397392046       -1.6076155276       -2.9008437705
 H        -7.2522869465        2.6623905459       -4.3303995228
 H        -7.0537674715        0.9001230085       -4.2763657104
 H        -6.4355082361        1.3822849046       -2.0786205858
 H        -8.1000531839        0.8158355354       -1.9512009982
 H        -8.4713621835        2.3253833008        2.6485402802
 H        -6.7181883185        2.0709400203        2.4654645130
 H        -6.8048452733       -0.3519640902        2.4419244739
 H        -8.4506838095       -0.4472073929        2.2085124153
 H        -7.2223896369        2.4155573868        5.2348311411
 H        -7.8562269926        1.9020384968        6.7836860146
 H        -7.6666076924        4.4605743025        6.8150841855
 H        -9.3463742984        4.2050105415        6.5853409782
 H        -9.8192531707        7.4750040445        2.9529693367
 H       -11.3141760753        7.6162694359        3.6878895647
 H       -11.6880411119        5.0129334144        3.2729204722
 H       -10.3325938372        5.1697900844        2.2546111994
 H       -10.8238674957        6.5439670006       -1.6699306848
 H       -12.2267937851        7.3139264875       -1.0093733730
 H       -12.5585895147        7.9512314492       -3.0822550736
 H       -13.3872310932        6.3584857705       -3.1430717857
 H       -13.9364358970        3.5494083859       -7.1179296629
 H       -14.6658725863        4.9895302581       -6.6353939592
 H       -14.9633122587        3.6689082721       -5.5058512138
 H       -14.1571762669        7.0807610201       -5.2591162769
 H       -13.5615059813        6.9495974904       -6.8524842631
 H       -12.5941698793        7.9271378558       -5.7524559135
 H       -10.5199384746        4.8354753016       -6.3754028898
 H       -10.5908895484        6.6125074916       -6.7169005606
 H       -11.6887608886        5.5805890441       -7.6107902124
 H       -11.2489975105        3.3639562914        0.7483830117
 H       -12.7286397088        2.8439152504        0.1135565339
 H       -12.6143253147        3.2867391069        1.8485555350
 H       -14.5377887770        6.1290320811        0.0325639864
 H       -14.6609503308        5.2667392431        1.6602874883
 H       -14.8825948079        4.4231641265        0.1198845538
 H        -7.5399763763        8.0609293184        6.1253713394
 H        -6.7178021883        6.3932852464        6.4935087529
 H        -8.3101320620        6.7594736699        7.1493710703
 H        -7.8946476277        6.5504428652        2.7739572827
 H        -6.4870512622        6.6128111509        3.7855722786
 H        -7.4656806826        7.9313663035        3.8390426483
 H       -10.7311774069       -1.0821756209        3.8269202889
 H       -10.7640288453        0.4479130136        3.2096855136
 H       -11.5016145319        0.1581683992        4.6970725831
 H        -9.0144865260       -1.4867267485        6.2637074856
 H       -10.4051991341       -0.4970158668        6.8252198470
 H        -8.8491184340        0.1273458928        7.0556150415
 H        -5.3862125295        3.8384749331       -0.4079616644
 H        -5.4503668252        2.1488274626       -0.6346221842
 H        -5.4179880354        2.8766580049        1.1039052601
 H        -7.2854946320        5.1243686107        0.4460555317
 H        -7.9709413304        4.2350536044        1.6183839239
 H        -8.8526570768        4.5524977635        0.0893016731
 H        -8.5406523105       -0.7505490224       -3.2304543945
 H        -8.3316255594       -1.1283009042       -5.0175521591
 H        -9.5556367046       -1.8796151987       -4.1007179445
 H       -10.0778970192        0.8211004061       -6.7069478434
 H       -11.6788543340        0.2630442536       -5.8922919281
 H       -10.2965327685       -0.9094912532       -6.3581689115
 Na      -10.5862756249        3.7805561469       -3.2312428544
