117

 C       -10.9240765887       -0.9940953919       -1.9613126348
 C       -10.5800184503        0.1845299664       -2.8560422519
 O       -10.8524695625        1.3089727304       -2.4366499064
 C        -9.7855716864       -0.0095849308       -4.3138285741
 C        -8.9882197801        1.3104597369       -4.5243233996
 O        -9.6085055950        2.3073144944       -4.9822507017
 C        -7.5474051337        1.5102506430       -4.2278114581
 C        -7.1775568951        1.3857067092       -2.7353851296
 C        -7.8764630376        2.4171757449       -1.8264503467
 O        -8.6760573492        3.2522156737       -2.2133138983
 C        -7.5209048372        2.5490356371       -0.2349953799
 C        -8.0745024153        1.2881718299        0.5381942702
 O        -8.3350265713        0.2779809735       -0.0662603697
 C        -8.1727926810        1.3995655991        2.0084931550
 C        -8.2403648470        0.0662843271        2.8272555467
 C        -7.8296485417        0.3679692890        4.2041129331
 O        -6.6352716031        0.4506825629        4.5106506219
 C        -8.8374674100        0.5756982975        5.4281713413
 C        -9.1782270976        2.0877785347        5.4845254127
 O       -10.2610056295        2.5428881678        5.0499954788
 C        -8.1190940833        3.0129638358        5.9396495574
 C        -8.4730167291        4.4811306087        5.8107908547
 C        -8.3176004079        5.0299922432        4.3864567701
 O        -8.1987418584        4.3495438178        3.4011360788
 C        -8.4232643737        6.5872897531        4.3390045540
 C       -10.0024339965        7.0069484451        4.4174253080
 O       -10.5775574918        6.9728463834        5.4913455329
 C       -10.7790796425        7.3589469027        3.1614092668
 C       -11.4483335790        6.0694461779        2.6673444995
 C       -12.4792156557        6.3973411371        1.5220265744
 O       -12.6118405209        7.5792297865        1.2191517489
 C       -13.1493852798        5.2214234648        0.7519137889
 C       -12.5475010120        5.2892546768       -0.7021060338
 O       -11.8388172416        4.3785405769       -1.0357311221
 C       -13.0436908041        6.4200196087       -1.6784194940
 C       -13.2878394556        5.9454025669       -3.1051000976
 C       -12.0374522821        6.0342391446       -3.9733252071
 O       -10.9607703785        6.2067850661       -3.4663414177
 C       -12.1496672147        5.8447730688       -5.5235029486
 C       -12.9260232686        4.5164787499       -5.6973625916
 O       -12.6083049207        3.5778430213       -4.9509022504
 C       -14.0525908805        4.3086892913       -6.7353784148
 C       -12.8853003790        6.9902809922       -6.2348934773
 C       -10.7552742805        5.6510020348       -6.1120586262
 C       -12.7366099597        3.8496241440        1.3842581091
 C       -14.6775421625        5.4688175539        0.8130507135
 C        -7.7174104834        7.2071922158        5.4857851080
 C        -7.7081399074        6.9884493385        2.9649918304
 C       -10.1307204267       -0.2604834194        5.3461855322
 C        -8.0688121593        0.0937001754        6.6834442730
 C        -5.9671681684        2.6566471546        0.0008111879
 C        -8.2319437657        3.8827067576        0.3080379876
 C        -8.9816813451       -1.2936946697       -4.3295101278
 C       -10.7052804498       -0.0522768328       -5.5415350429
 H       -11.7321753027       -1.6761105147       -2.3491975184
 H       -11.0239211960       -0.5850172095       -1.0110645290
 H       -10.0279923537       -1.7049010282       -1.9447161342
 H        -7.2089063612        2.4541121065       -4.6521110136
 H        -6.8950216026        0.7516046777       -4.6608218784
 H        -6.0588960809        1.4221446233       -2.6347749907
 H        -7.5130769492        0.3980137759       -2.2993472953
 H        -9.0856476934        1.9827663151        2.2683888405
 H        -7.3189816122        2.0191422971        2.3733445917
 H        -7.5597622128       -0.7051577932        2.4759000652
 H        -9.3201894408       -0.2651042747        2.9850221090
 H        -7.1231869098        2.8121989126        5.4521386621
 H        -8.0320083895        2.9066277981        7.0008105650
 H        -7.8882145810        5.1041764138        6.4281092612
 H        -9.5228237396        4.6448729735        6.1052411676
 H       -10.1604150722        7.7253691730        2.3385335346
 H       -11.5700740110        8.0929905672        3.4025673705
 H       -11.9933300357        5.6110227699        3.4852091782
 H       -10.6954290735        5.4056495259        2.1374291025
 H       -12.3534293019        7.1736437816       -1.6303465609
 H       -13.9637901130        6.8499154165       -1.3162014311
 H       -14.0941152613        6.4822552490       -3.5944349076
 H       -13.6190165445        4.9087036915       -3.0903517912
 H       -14.6675266710        3.4821852339       -6.3193532870
 H       -13.5343602120        4.0408785294       -7.6639537586
 H       -14.6557134653        5.1475650969       -6.9115865829
 H       -13.8034616977        7.2119583483       -5.7604998208
 H       -12.8918056041        6.7116568405       -7.2805007986
 H       -12.2528951950        7.8694514591       -6.1204548204
 H       -10.4174256582        4.6274266030       -5.9799017901
 H       -10.0696130297        6.2383154050       -5.4945465358
 H       -10.7082792431        5.9606410267       -7.1083902335
 H       -11.7265089097        3.6827299053        0.9588216322
 H       -13.4480387517        3.0454267779        1.2700624073
 H       -12.5562777789        3.8382421700        2.4935277334
 H       -14.9803369919        6.4907308278        0.9142809298
 H       -14.9730148720        4.9628628533        1.7023015861
 H       -15.1975436247        4.9475202635       -0.0465075507
 H        -7.4093674938        8.2481818479        5.4251111850
 H        -6.7908710340        6.7084938503        5.7026242695
 H        -8.3608239551        7.1218423980        6.4331644159
 H        -8.0552739829        6.4329937211        2.0904007527
 H        -6.6267298224        6.8009986885        3.0729259174
 H        -8.0074839415        8.0246094372        2.7616414958
 H        -9.9360195833       -1.3147210805        5.4556481159
 H       -10.7949699351        0.0092174128        4.4984953630
 H       -10.8257279333       -0.0834394990        6.2244491157
 H        -7.7897717122       -0.9394222023        6.5730871325
 H        -8.7638770398        0.1901095168        7.5066696737
 H        -7.1581618494        0.6189135201        6.8223206855
 H        -5.7173086466        3.7160237215       -0.1147529281
 H        -5.3962003764        2.0204023769       -0.6471264002
 H        -5.7220723848        2.2914326186        0.9507097274
 H        -7.6093290692        4.7269723008        0.1417483090
 H        -8.6628309674        3.7289986524        1.3418562231
 H        -9.1558742299        3.9877091968       -0.2597587014
 H        -8.2467935937       -1.3882199557       -3.5211101997
 H        -8.3572332308       -1.3393906751       -5.2012100396
 H        -9.6822684530       -2.1534174047       -4.2912743013
 H       -10.8878913164        0.9792492433       -5.9305137277
 H       -11.7027646623       -0.5017718393       -5.3403401002
 H       -10.2823543640       -0.6572722613       -6.3494058432
 Na      -10.7621823220        3.5378082651       -3.1028575743
