117

 C       -10.1147939085       -1.4206548186       -1.5317801015
 C       -10.3404943986       -0.2419758464       -2.5055035034
 O       -10.9053799445        0.7940335343       -2.1425682083
 C       -10.0012449897       -0.2964384535       -4.0197121725
 C        -9.1954028651        1.1001862486       -4.4168110269
 O        -9.8517785491        1.9381219535       -4.9522465270
 C        -7.6469557946        1.2568864546       -4.1121458792
 C        -7.3414290537        1.2793230943       -2.5809298966
 C        -7.9776244269        2.5248178249       -1.8563872915
 O        -8.9738961159        3.1324046740       -2.2499995653
 C        -7.3763245216        2.7934271782       -0.3617234363
 C        -8.0189705059        1.6205100724        0.4607944568
 O        -8.0721435482        0.5146971052       -0.0692298569
 C        -8.3345329564        1.8483700855        1.9686124384
 C        -8.2802327678        0.4254424273        2.7656774073
 C        -7.5795511907        0.6963882860        4.1731078289
 O        -6.3956318291        0.9089113960        4.2029984295
 C        -8.4023528060        0.9371706941        5.6156447766
 C        -9.0122971137        2.3357085193        5.4158494067
 O       -10.0761658412        2.4876360263        4.8449401615
 C        -8.2258180196        3.5122275649        5.9912141379
 C        -8.7371850489        4.9188730543        5.6752229377
 C        -8.3204523880        5.3704765900        4.3145682819
 O        -7.8766065257        4.5303906269        3.5110221890
 C        -8.4750374292        6.8730844830        3.9377999023
 C        -9.9977539451        7.2490172292        4.1925855985
 O       -10.3695074095        7.2454253321        5.3491188229
 C       -11.0097885204        7.3491411181        2.9643204787
 C       -11.4776980286        5.9829911065        2.5690929911
 C       -12.3558134005        6.1784247836        1.3435877518
 O       -12.3786753967        7.3047747112        0.8754947770
 C       -13.2402764945        4.9908930955        0.6980897067
 C       -13.1712830969        5.0818821679       -0.9001443403
 O       -13.1304598117        4.0131396322       -1.5474519543
 C       -13.1289445376        6.5229440866       -1.5670846932
 C       -13.1326316865        6.6813122163       -3.0410109178
 C       -12.0981848496        5.8194617087       -3.7201734961
 O       -11.0806494379        5.3982652223       -3.1247393911
 C       -12.1183160765        5.6422343691       -5.2552885110
 C       -12.5668722808        4.1917931732       -5.7289255991
 O       -12.5470530778        3.3547807389       -4.8608589691
 C       -13.0056772839        3.9181724836       -7.1289554856
 C       -13.0265367540        6.8149039779       -5.8830852479
 C       -10.7010253161        5.7673446604       -5.7124828394
 C       -12.9343393094        3.6222045124        1.2953493871
 C       -14.7872023245        5.4012951253        0.9216562457
 C        -7.5419998229        7.7524914930        4.7888038797
 C        -8.0599740913        6.9188996708        2.4462657757
 C        -9.4586647606       -0.1868073201        5.6616796888
 C        -7.4341494020        0.8353946800        6.7708635153
 C        -5.7949677855        2.8375068487       -0.1270353318
 C        -7.9608222391        4.1821676184        0.1430198350
 C        -9.2243297481       -1.4867413437       -4.5367466918
 C       -11.5240628121       -0.1318323250       -4.5307513119
 H       -10.3935778760       -1.0769473560       -0.5089837359
 H        -9.0090132113       -1.7519941947       -1.5689791851
 H       -10.6713234756       -2.2591314587       -1.8086991967
 H        -7.2679992712        2.1918306201       -4.5090946287
 H        -7.0248507887        0.4393591964       -4.4484780620
 H        -6.2535269824        1.2763533735       -2.4787076059
 H        -7.7457017199        0.4084465642       -1.9959552463
 H        -9.3336915554        2.1741888713        2.0205789785
 H        -7.6509298211        2.6109235603        2.3758575145
 H        -7.5846186074       -0.2508911129        2.2138781423
 H        -9.1992019571       -0.1358494103        2.7067033732
 H        -7.2057165170        3.4307229181        5.7810034274
 H        -8.1460896584        3.4132186690        7.1176467676
 H        -8.2805452448        5.6445974951        6.3702714581
 H        -9.8350035542        5.0046058093        5.7328933643
 H       -10.6357147175        7.9964058437        2.1298228186
 H       -11.8711785201        7.8817062936        3.4324918144
 H       -12.0871073705        5.5101917856        3.3601482140
 H       -10.7148746436        5.1722632025        2.4222581899
 H       -12.1839716818        6.8979217649       -1.1849088878
 H       -13.8732500201        7.0885608957       -1.1702973910
 H       -12.8109727397        7.7149500057       -3.2572866723
 H       -14.1383849701        6.6149579596       -3.4877408062
 H       -13.2628498828        4.8438476308       -7.6137913660
 H       -13.8405547156        3.1145398926       -7.1271885285
 H       -12.1514862389        3.4934155649       -7.5607450291
 H       -14.0745527390        6.5503221468       -5.6437562468
 H       -12.8724765799        6.7605365351       -6.9685692928
 H       -12.6201204599        7.7554060344       -5.5428335318
 H       -10.1922728591        4.7713320291       -5.6523806047
 H       -10.1736106070        6.4949835136       -5.0772800220
 H       -10.6586211526        6.1277978165       -6.7962948240
 H       -11.9043528685        3.3712841677        1.4205480465
 H       -13.2389901187        2.9084017807        0.5280201633
 H       -13.4550713392        3.5922310940        2.2168639052
 H       -14.9035483637        6.4508043356        0.5876190491
 H       -15.1129098770        5.3091359014        1.9977078297
 H       -15.4254049904        4.7794009352        0.3353115201
 H        -7.2628553518        8.7198102109        4.4044007854
 H        -6.5895349316        7.1978344544        4.9672546414
 H        -7.8277650512        7.9521894577        5.7595330692
 H        -8.8416382887        6.4642876971        1.8179837219
 H        -7.1317123582        6.4718254448        2.1471364021
 H        -7.9268240147        7.9684665977        2.1938680932
 H        -8.9462548936       -1.1663010014        5.4405418228
 H       -10.1641984580       -0.1251615403        4.8357373480
 H        -9.8214559516       -0.1032322013        6.6782562535
 H        -7.3968892091       -0.1946873776        7.1502017680
 H        -7.7874042584        1.3877071164        7.6741912999
 H        -6.4653491022        1.3055913321        6.4767990676
 H        -5.3194375879        3.7560446769       -0.3802958637
 H        -5.3555052366        2.1159147424       -0.8148624327
 H        -5.5320002852        2.7255944116        0.9588676455
 H        -7.3915393570        5.1009925044       -0.2194934004
 H        -7.7439656886        4.2018951255        1.1937138245
 H        -9.0306653664        4.3004786977       -0.1701116385
 H        -8.4805548618       -1.8370361594       -3.8310337599
 H        -8.6915171019       -1.1659955667       -5.4679139699
 H        -9.7744901576       -2.3721882672       -4.7649049945
 H       -11.8683775904        0.7997099888       -4.3655087122
 H       -12.1101906563       -0.7569160337       -3.9793683949
 H       -11.7033883869       -0.4244084016       -5.5798437180
 Na      -11.3978379394        2.9469319118       -2.9074665727
