117

 C       -10.6892727241       -1.1059593737       -1.1864541402
 C       -10.7324054732       -0.0832490651       -2.2336077543
 O       -11.4160033355        0.8994434012       -1.9493871849
 C       -10.3440444058       -0.2770043880       -3.7318340980
 C        -9.7253810583        1.0264559246       -4.4018239873
 O       -10.3492947556        1.5084539239       -5.3400020741
 C        -8.3500006753        1.6171252299       -4.2054425109
 C        -7.7673514485        1.4594383496       -2.8003586943
 C        -8.2251234372        2.5658705540       -1.7851555815
 O        -9.2489890247        3.2299363183       -1.9520671587
 C        -7.4069281676        2.7746872965       -0.5408719322
 C        -7.5144151926        1.5788830292        0.4307506504
 O        -8.0784571477        0.5607394916        0.0779372986
 C        -6.9140776249        1.7307477784        1.8478895059
 C        -7.6883849925        0.9850424052        2.9746076197
 C        -7.0487497134        1.0292286800        4.4041717293
 O        -5.8988491228        0.6409125627        4.5995397081
 C        -7.9645063294        1.2263308797        5.6497781640
 C        -8.7041712875        2.6473858428        5.4700572623
 O        -9.7651880245        2.8011251496        4.9341664173
 C        -7.8650726378        3.8892567423        6.0207724515
 C        -8.5169909037        5.3029692707        5.7088196878
 C        -8.3026422558        5.8215695506        4.2833978271
 O        -7.9544303870        5.0592362389        3.3601900162
 C        -8.5373516539        7.3167469795        3.9042903984
 C       -10.1587986565        7.4240905294        4.0378606206
 O       -10.7005774526        7.4218566419        5.1183375857
 C       -11.0546922644        7.6222695720        2.7459636533
 C       -11.3701426051        6.2969466687        2.0826990608
 C       -12.6135980771        6.3515517799        1.2500889707
 O       -13.0745816439        7.3895876684        0.8060494068
 C       -13.3088025980        4.9733497998        0.7546151706
 C       -12.9204258228        4.8234871303       -0.6903531209
 O       -12.3260636787        3.7582553788       -0.9772380785
 C       -13.1304951998        5.9369009208       -1.7694560748
 C       -13.4147937392        5.3416495530       -3.1401354641
 C       -12.0386731609        5.3105617288       -3.8617716873
 O       -11.0091650374        5.4424183918       -3.1820222149
 C       -11.9920816490        5.0501493202       -5.4256835993
 C       -12.6024358281        3.6243095189       -5.7715380762
 O       -12.8809524475        2.7989624315       -4.8797652808
 C       -12.5966774416        3.1473576133       -7.2359582832
 C       -12.8984525080        6.2218725055       -6.0451788207
 C       -10.4911348656        5.1782475660       -5.9573949878
 C       -12.9300751994        3.7724720599        1.5944613215
 C       -14.8014839053        5.2967883341        0.8514788436
 C        -7.9865198167        8.2872300883        4.9906530045
 C        -8.0792734564        7.7425796356        2.4935281611
 C        -9.0334035773        0.0540428025        5.4106016215
 C        -7.1829816843        1.0983832385        6.9427835099
 C        -5.9302858196        2.7940048987       -0.9177767649
 C        -7.7732169382        4.1178731266        0.1234367812
 C        -9.5141782573       -1.5610359908       -3.9312578326
 C       -11.7843081348       -0.5675473358       -4.2667528772
 H       -11.4256908123       -0.8641449649       -0.3845305378
 H        -9.6349767618       -1.0963698312       -0.6633846695
 H       -10.8867985444       -2.0307791088       -1.6390919672
 H        -8.2894833554        2.6233278306       -4.5504003051
 H        -7.6004193589        1.0853642084       -4.7974446794
 H        -6.6511476062        1.4155412449       -2.8437188559
 H        -7.9772670914        0.4865265962       -2.3350718687
 H        -6.8819141213        2.8049541977        2.0105320602
 H        -5.8359388666        1.4957105722        1.7715434051
 H        -7.7370276614       -0.0288179103        2.6329660786
 H        -8.6846507220        1.4712598400        3.0624289388
 H        -6.8568108385        3.8459626989        5.4999132464
 H        -7.7037534912        3.9118561724        7.0916727836
 H        -8.0192511092        6.0345783703        6.3092451060
 H        -9.5975635907        5.2791796083        5.9540996532
 H       -10.5788849523        8.3383343865        2.0630835791
 H       -11.9498634044        8.1658168853        3.0196653793
 H       -11.5743263100        5.5070573065        2.8606499402
 H       -10.5212982226        6.0190551454        1.3463247292
 H       -12.2504186643        6.5127130721       -1.8248992451
 H       -13.9192558384        6.5657428067       -1.4152353979
 H       -14.2205890105        5.8499072729       -3.6813075863
 H       -13.6395081644        4.2763237612       -3.0124797223
 H       -12.4262786782        3.9447276034       -7.8919907847
 H       -13.5974742187        2.6910896541       -7.5283896953
 H       -11.7779888384        2.4299456590       -7.3964597890
 H       -13.9287924332        5.8744919179       -5.7995801180
 H       -12.8961401934        6.4254047126       -7.1516186025
 H       -12.6975934560        7.0690848621       -5.4118761818
 H       -10.0017881745        4.2004060864       -6.0979432734
 H        -9.9371711627        5.7982041190       -5.2355151362
 H       -10.3679032656        5.7187816644       -6.9436531487
 H       -11.9042247246        3.5353837487        1.5356493988
 H       -13.5600797177        2.9090850975        1.2571252063
 H       -13.2791876132        3.8901830296        2.5888557458
 H       -15.1639335336        5.7252887996       -0.0739731380
 H       -14.9604748635        6.0263248526        1.6804094615
 H       -15.4505621178        4.4302465817        0.9934228977
 H        -8.5227283370        9.1972856839        5.1128755286
 H        -6.9318176446        8.5983699871        4.7524134421
 H        -7.8586349657        7.8800919134        5.9883174433
 H        -8.3603241587        7.0191502239        1.7774469051
 H        -7.0384057477        7.9666789320        2.4739813270
 H        -8.5976042697        8.6209529256        2.1828284691
 H        -8.5907547913       -0.7782167591        5.9853359352
 H        -9.2090033026       -0.0492967986        4.3508846587
 H        -9.9603691550        0.2728318593        5.8266581580
 H        -6.6300217986        0.0862448206        6.8719174168
 H        -7.8384456675        1.0228807334        7.7992288918
 H        -6.4088654271        1.8840632116        7.1912780015
 H        -5.7918979815        3.1764500047       -1.9189450830
 H        -5.4340200023        1.8159530247       -0.8152457669
 H        -5.3322007405        3.3512829422       -0.1734339485
 H        -7.8132535354        4.9145995397       -0.6826755698
 H        -7.1010550511        4.3850180013        0.8706091131
 H        -8.7247943666        4.1660224371        0.6289643261
 H        -9.0485327715       -1.7532428639       -2.9736728153
 H        -8.7865117013       -1.5019565314       -4.7702062660
 H       -10.1326314438       -2.3640594705       -4.2061538067
 H       -12.4223820941        0.2085720310       -4.1029659169
 H       -12.1221464622       -1.4051320734       -3.7973599528
 H       -11.6975291763       -0.6909775969       -5.3574270470
 Na      -11.4096588724        2.8415514087       -3.0689781200
