117

 C       -10.5312414784       -1.4709562650       -1.1874346411
 C       -10.7874323267       -0.3004077396       -2.1518068341
 O       -11.1737793254        0.8034691219       -1.7885597916
 C       -10.5324148601       -0.5379273787       -3.7225516213
 C        -9.9425822491        0.7974014010       -4.4022082098
 O       -10.5049843152        1.3923995882       -5.3080068012
 C        -8.5283942445        1.1486747760       -3.9618079422
 C        -8.0774934975        1.0909511415       -2.4986523316
 C        -8.1969077533        2.4310651415       -1.7391239328
 O        -8.9871345993        3.2945710773       -2.1004480785
 C        -7.2572299466        2.8056383812       -0.5187071384
 C        -7.4113631141        1.5800238897        0.5161952079
 O        -8.1428482688        0.6244406122        0.2701926695
 C        -6.6131322906        1.6619993102        1.7719422812
 C        -7.5547746820        1.2646799555        2.9773161943
 C        -6.9947301922        1.1620331610        4.3545836893
 O        -5.7967467427        1.0755801975        4.5254725644
 C        -7.9961201003        1.3569238604        5.5906843894
 C        -8.5777603945        2.7351755039        5.3442665232
 O        -9.6120124028        2.8620032287        4.7541468980
 C        -7.8291180076        3.9430759284        5.8715687851
 C        -8.6347252812        5.2159197389        5.5029019840
 C        -8.2312235582        5.8946508110        4.1823243151
 O        -7.8589002495        5.1998401519        3.2314846192
 C        -8.6144068452        7.3717474854        3.9640843397
 C       -10.1664970636        7.3872406471        4.0475155731
 O       -10.6890981728        7.1061523305        5.1135771051
 C       -10.9946361801        7.5849766906        2.8061683276
 C       -11.3868959885        6.2664135770        2.2250932575
 C       -12.6108907277        6.4760325015        1.3082410295
 O       -13.1892874675        7.4854205069        0.9295347294
 C       -13.3038096181        5.0879107609        0.8336413990
 C       -12.9399547264        5.0141732942       -0.7083997592
 O       -12.1278420171        4.1581423254       -1.0568519686
 C       -13.5584346824        5.8699186717       -1.8082364956
 C       -13.4393873951        5.6146406777       -3.3190353426
 C       -12.0829458764        5.4384919015       -3.9880770924
 O       -11.0019883142        5.3418940596       -3.4179044476
 C       -12.1093828850        5.0811175014       -5.5446912579
 C       -12.5746965887        3.5687688778       -5.6932360321
 O       -12.7186892722        2.7233337610       -4.7607774542
 C       -12.9723536894        3.0879200672       -7.0755745915
 C       -12.9807105765        6.0771349671       -6.4126259295
 C       -10.6614309513        5.0918299002       -6.1335284944
 C       -12.8837543300        3.8068927518        1.5261721506
 C       -14.8457344644        5.2393200760        1.0063652225
 C        -8.0823660596        8.4067079607        4.9859469532
 C        -8.0924818795        7.8495040663        2.5732853825
 C        -9.1988521465        0.3427394898        5.6596608742
 C        -7.1402823530        1.3063899114        6.8830936646
 C        -5.7657264651        3.0319600853       -0.9667358362
 C        -7.8494431666        4.0458924974        0.1518219257
 C        -9.4338461152       -1.5828519610       -3.8665115715
 C       -11.7112434256       -1.1214591905       -4.5039870315
 H       -11.2203230429       -1.4849465751       -0.3892427815
 H        -9.4671340165       -1.3468160301       -0.7468825918
 H       -10.6309220671       -2.3666333797       -1.6748099535
 H        -8.2873864069        2.1788561202       -4.2976433507
 H        -7.7964781749        0.5563489430       -4.5334517146
 H        -7.0230422701        0.8342038933       -2.3825082089
 H        -8.6019990116        0.3543658943       -1.9322002762
 H        -6.1864584903        2.7009561927        1.9040133606
 H        -5.7503727715        1.1020455939        1.6267331921
 H        -7.9599097851        0.2744054355        2.7725087150
 H        -8.3337609886        2.0210835773        3.0310884646
 H        -6.8487595902        4.0643080318        5.3948031297
 H        -7.6754145671        3.9410319211        6.8938934619
 H        -8.5142022008        6.0099287167        6.2970605530
 H        -9.7048378126        5.0181197138        5.3844875440
 H       -10.5713210150        8.3451763452        2.1148553610
 H       -11.9144361558        8.0975182421        3.1081501617
 H       -11.7728681207        5.6781076548        3.0425654192
 H       -10.6338275753        5.8642652583        1.6515293268
 H       -13.1932778785        6.8607472148       -1.5828616754
 H       -14.6886355068        5.9308991380       -1.5673628332
 H       -13.9299830921        6.4877389965       -3.8081719219
 H       -14.0217177425        4.7144264896       -3.6340921662
 H       -13.1686850520        3.7874000083       -7.8197896290
 H       -13.8285209100        2.4598736780       -6.8779629947
 H       -12.1560325751        2.4088837216       -7.4842599006
 H       -14.0211251347        5.9470726634       -6.2195033308
 H       -12.8974359546        5.8524512510       -7.4765711118
 H       -12.5661878459        7.0718416517       -6.2686909536
 H       -10.0166066463        4.5422642553       -5.4846283051
 H       -10.3331472799        6.1040599810       -6.2870625416
 H       -10.5493437385        4.6344540795       -7.0861255903
 H       -11.8339080054        3.6070671302        1.3037798106
 H       -13.3580866854        2.8814721355        1.1371726805
 H       -13.1022558477        3.8686417203        2.6138811812
 H       -15.2158175688        6.2454510592        0.9693525299
 H       -15.0360482745        4.8643298661        1.9893889166
 H       -15.4690606203        4.8064192597        0.2086112555
 H        -8.8418184120        9.1422068380        5.2261060031
 H        -7.1283060120        8.8527155894        4.6631850888
 H        -7.6973872770        7.8789086537        5.8946329079
 H        -8.6770866945        7.3954463028        1.7474862078
 H        -6.9798397750        7.7185841216        2.4852842796
 H        -8.2158073000        8.9638046017        2.5328558467
 H        -8.8675799119       -0.7072416600        5.4936660442
 H        -9.8922963793        0.7427589639        4.8903542271
 H        -9.6282167419        0.4309060438        6.6109902493
 H        -6.6349123025        0.3387559477        6.9682395358
 H        -7.7176699372        1.3556015608        7.7278737014
 H        -6.4783336863        2.1285733353        6.9266876277
 H        -5.6837022297        3.9997721018       -1.5000616174
 H        -5.4180794985        2.2926898195       -1.7004396555
 H        -5.0845542785        3.1369617167       -0.1231770948
 H        -7.7070927959        4.9507185667       -0.4657442874
 H        -7.5025684575        4.2163168140        1.1295300155
 H        -8.9192840525        3.9728456951        0.2281706577
 H        -8.5065660976       -1.2301224123       -3.3925188238
 H        -9.3032413651       -1.6920253073       -4.9401684742
 H        -9.7206660171       -2.5573056594       -3.4442065405
 H       -12.5375724113       -0.4355265366       -4.5630384960
 H       -12.0452805554       -2.0339751277       -3.9743409187
 H       -11.2935232681       -1.3669907932       -5.5772903351
 Na      -11.2363798990        2.9161035615       -2.7556455321
