117

 C       -10.6980846993       -1.6539511048       -1.1795364084
 C       -10.7467815372       -0.5248516405       -2.2408093669
 O       -11.1357265267        0.5898048244       -1.9861500494
 C       -10.3804374849       -0.8395451335       -3.7000048877
 C        -9.7947209359        0.4873356602       -4.2830914835
 O       -10.5872574206        1.2126466472       -4.8309917106
 C        -8.3836702742        1.1104929587       -3.9954729485
 C        -7.9968991235        1.0851545808       -2.4925388738
 C        -8.1590283966        2.4832916878       -1.7595237308
 O        -8.8939662985        3.3256264181       -2.1881568311
 C        -7.2591616847        2.7122110396       -0.4623246923
 C        -7.3913545163        1.5553696883        0.5328813558
 O        -8.0852051677        0.5915434547        0.2917587627
 C        -6.6220565735        1.6111560755        1.8739577049
 C        -7.6606012650        1.3332476804        2.9648126043
 C        -6.9697962853        1.3098180920        4.3499792756
 O        -5.7908354324        1.3839722484        4.3356265997
 C        -7.9460689502        1.4252415652        5.6090737854
 C        -8.5908976321        2.8653179474        5.3324673814
 O        -9.6007804607        2.9773396303        4.6343163404
 C        -7.8301975542        4.0663726726        5.7245542326
 C        -8.4916098258        5.4514095547        5.5886981663
 C        -8.1400267080        6.0156318835        4.1982623900
 O        -7.5843086825        5.3342990726        3.3988123424
 C        -8.6368981476        7.4892299367        3.9266451062
 C       -10.1806710967        7.4964764706        4.0798313031
 O       -10.7274953911        7.1885279800        5.1283836972
 C       -11.1764204034        7.7466915876        2.9268171466
 C       -11.5684583905        6.3367940865        2.3387526148
 C       -12.7788392129        6.4860151621        1.2370662274
 O       -13.1864173047        7.5327818508        0.8115379983
 C       -13.3976156403        5.1332027749        0.6476748037
 C       -12.9645096268        4.9625007639       -0.8946189892
 O       -12.1494527012        4.1395686910       -1.1872782707
 C       -13.5223092103        5.9670731546       -1.8597922211
 C       -13.6087692818        5.6068784391       -3.3554589528
 C       -12.2147261992        5.4895756807       -4.0576940409
 O       -11.2340771241        5.5817652596       -3.3616871785
 C       -12.1485049428        5.0920236305       -5.6221936985
 C       -12.6574258303        3.5341652729       -5.5976942132
 O       -12.5867536239        2.9176330256       -4.5972114098
 C       -13.3181467778        2.8693159519       -6.7529495319
 C       -13.1338472965        5.9547918256       -6.4491159042
 C       -10.7063018189        5.1309192409       -6.0565543060
 C       -12.8357663335        3.8822274118        1.3870678576
 C       -14.9599775639        5.1765635421        0.8001366651
 C        -7.9808438892        8.3136172843        5.0599751197
 C        -8.0208483516        7.8845991474        2.4960643161
 C        -8.9475075414        0.1921449301        5.4982732123
 C        -7.0442956942        1.3231484570        6.8665468544
 C        -5.7949074739        3.0168688862       -0.9272360969
 C        -7.8483251465        3.9602770918        0.3052811104
 C        -9.3179682129       -1.9248202477       -3.8892235058
 C       -11.7704072326       -1.1764350650       -4.3387015071
 H       -11.1736635786       -1.3399534654       -0.2170941518
 H        -9.7275920807       -1.9830822404       -1.0052321185
 H       -11.4012391986       -2.5506462925       -1.4770909798
 H        -8.3251436621        2.1296262721       -4.3275381529
 H        -7.6103395987        0.6188226675       -4.5667393006
 H        -6.9189100239        0.9125384656       -2.3558887272
 H        -8.5968024042        0.3160366339       -1.9362733202
 H        -6.1603695669        2.5308091186        2.1037833810
 H        -5.7807728199        0.8375764509        1.9549071193
 H        -8.1551780843        0.3817181625        2.7888134116
 H        -8.3705537745        2.1520386461        2.9300897079
 H        -6.8751742426        4.1768885152        5.2244292519
 H        -7.6031390707        3.9823757656        6.8571145747
 H        -8.1975622624        6.1245543891        6.3627052472
 H        -9.5944868491        5.4560328678        5.5928984367
 H       -10.8335461862        8.4340726683        2.1763881902
 H       -12.0619826157        8.2318264287        3.3813785673
 H       -12.0839768296        5.8108968200        3.1641455039
 H       -10.6113962923        5.9118400075        1.8501390184
 H       -12.7350008336        6.7468195739       -1.7750426317
 H       -14.3644469037        6.4345248539       -1.5173537470
 H       -13.9918464771        6.5372891696       -3.7979212703
 H       -14.3106527965        4.8272482081       -3.6478273082
 H       -13.8143158049        3.6950025482       -7.3777516889
 H       -14.0437986173        2.1577074827       -6.3988970589
 H       -12.6394109817        2.3818513158       -7.4067971291
 H       -14.2091643839        5.8181614060       -6.2673413120
 H       -12.9718168902        5.8084848588       -7.5104529488
 H       -12.7729863502        7.0076194985       -6.3607288808
 H       -10.0167367604        5.1156347264       -5.1978871089
 H       -10.4596771639        5.9458881508       -6.7273204681
 H       -10.4423054025        4.2422341707       -6.6366902560
 H       -11.7772286410        3.6857203956        1.2827766816
 H       -13.2454167165        3.0210908550        0.9548668837
 H       -13.0963692228        3.8986676578        2.4227712125
 H       -15.4329810785        6.1727972492        0.6533734440
 H       -15.2185350627        4.8483348761        1.8086474046
 H       -15.4609164054        4.6109105851        0.0230737954
 H        -8.1163314098        9.3700576091        4.7466710768
 H        -6.9758131624        8.0330999910        5.3175606742
 H        -8.5481169763        8.1573143549        5.9798107586
 H        -8.0684368469        7.0064165335        1.8626709502
 H        -7.0427335860        8.2847036555        2.5815143708
 H        -8.5968889734        8.6744633458        2.0645663939
 H        -8.4999010968       -0.5971016206        4.9693483351
 H        -9.7344155432        0.4939064084        4.8454573238
 H        -9.2283357597       -0.0489460039        6.5519441040
 H        -7.0896620226        0.3918765679        7.3771276854
 H        -7.3326597403        2.1140704031        7.6594860214
 H        -6.0274794965        1.6455909248        6.5921190017
 H        -5.6956918178        3.8772428219       -1.5639314612
 H        -5.4098513117        2.1997136915       -1.5309786809
 H        -5.2233533409        3.3387058249       -0.0525590450
 H        -8.0985038554        4.7583529797       -0.2958063563
 H        -7.0839200512        4.3697730769        1.0214359576
 H        -8.7486602246        3.7124584732        0.8387021658
 H        -8.3893809382       -1.7100907449       -3.3643500776
 H        -9.1470647889       -2.0177089361       -4.9616185819
 H        -9.7592286458       -2.8385272665       -3.4686493142
 H       -12.2674895658       -0.2383581905       -4.4983512677
 H       -12.3716397642       -1.7846924927       -3.7121661116
 H       -11.5928891398       -1.6727694927       -5.1874672888
 Na      -11.0834138102        2.8596492134       -2.8599139754
