117

 C       -10.6238410488       -1.2828661033       -1.1570399424
 C       -10.7607768062       -0.1263677791       -2.1575688950
 O       -11.3877460542        0.9071815981       -1.9408082136
 C       -10.3524820595       -0.3811076076       -3.6862570595
 C        -9.8318097454        0.8669818644       -4.4791441992
 O       -10.4520405916        1.4116541424       -5.3971896042
 C        -8.4550687362        1.4631874016       -4.1436014549
 C        -7.8675499690        1.3284038630       -2.6683338904
 C        -8.3082850594        2.5480996302       -1.7644233184
 O        -9.2273786572        3.2508632606       -2.1161220744
 C        -7.3658182647        2.8624562556       -0.5464126519
 C        -7.5339333737        1.5937115606        0.5075350968
 O        -8.0595613880        0.5560251929        0.1832280802
 C        -6.7872257614        1.6159356851        1.9149635368
 C        -7.6384199242        1.0235709367        3.0127707277
 C        -6.9948075895        1.0928483570        4.3908015761
 O        -5.8456568711        0.7370862439        4.5615097441
 C        -7.9391495782        1.3444143673        5.6299786097
 C        -8.6296937505        2.7229582124        5.4769786336
 O        -9.7157638626        2.8035259897        4.8878461925
 C        -7.9285817153        3.9432108989        5.9729794356
 C        -8.4901192540        5.3346356764        5.6299042619
 C        -8.3100987575        5.8230681020        4.1740981797
 O        -7.9324385537        5.1859781769        3.2066305738
 C        -8.6557917396        7.3556490101        3.9130429774
 C       -10.1888023115        7.4881304004        3.9988606976
 O       -10.7168802936        7.2548288774        5.0555387985
 C       -11.0761294851        7.6105810363        2.7398636447
 C       -11.2588146682        6.2021676741        2.1506392734
 C       -12.5787106990        6.3721020425        1.2612776876
 O       -13.0148576115        7.4597298568        0.9721825466
 C       -13.3674574289        5.0466629053        0.8230841395
 C       -12.9306453926        4.8737596860       -0.6877357310
 O       -12.2052674878        3.9564845781       -1.0146273100
 C       -13.3288121645        5.8975001666       -1.7411966169
 C       -13.4075487355        5.3974677887       -3.2058484221
 C       -12.0330832563        5.2745571819       -3.9165543452
 O       -10.9702515525        5.3471348672       -3.3346853164
 C       -12.0608391725        5.0319995143       -5.4048686379
 C       -12.5069170163        3.6014623092       -5.7730980405
 O       -12.8049623464        2.8661961151       -4.8843065591
 C       -12.6636583502        3.1518404331       -7.1885603582
 C       -12.9706662873        6.1686693236       -6.0598556764
 C       -10.5915160599        5.0203874172       -6.0045994021
 C       -12.8725545938        3.8235653602        1.5303526560
 C       -14.9272494667        5.2876998878        0.9017838308
 C        -8.0297964978        8.2471483341        5.0214880249
 C        -8.1085364127        7.7651196702        2.5615124421
 C        -8.9990291888        0.2216006394        5.4876627104
 C        -7.2490552249        1.0852607437        6.9615134988
 C        -5.8307313910        2.8575206054       -0.9931931228
 C        -7.7971425712        4.1776175644        0.0983132822
 C        -9.3651308625       -1.5902230172       -3.8878449491
 C       -11.7619267895       -0.6088978862       -4.3323157104
 H       -11.4392900459       -1.1726681760       -0.3748401922
 H        -9.7302188082       -1.2256175403       -0.6391139826
 H       -10.7554188885       -2.2644018593       -1.6914406797
 H        -8.4462453674        2.4984850105       -4.4836455149
 H        -7.6478751854        1.0055376268       -4.7343642828
 H        -6.7578851680        1.2835949804       -2.6688620240
 H        -8.1062798885        0.3350639405       -2.1810052525
 H        -6.3676018876        2.5632079380        2.1444815108
 H        -5.8228046961        1.0067570725        1.6695502214
 H        -7.7620921920       -0.0427894191        2.7066204711
 H        -8.5967933136        1.5974949578        3.0689677937
 H        -6.8607949492        3.8510565977        5.7382880650
 H        -8.0436359736        3.9811557036        7.1253545824
 H        -8.0782340677        6.0566703875        6.2706217321
 H        -9.5767497661        5.2911978038        5.8045459370
 H       -10.6957156884        8.3242719209        2.0521606937
 H       -12.0279746432        8.0536877118        2.9923566317
 H       -11.4882815724        5.5177997251        2.9672534141
 H       -10.3427072084        5.9339352938        1.5064071888
 H       -12.6407924551        6.8057736184       -1.6882483024
 H       -14.2854281508        6.2509953640       -1.4668996953
 H       -13.9706343098        6.1591569327       -3.7029404433
 H       -13.9116328496        4.4550474000       -3.3111792482
 H       -12.5754497541        3.9932322618       -7.9233486644
 H       -13.6740037121        2.6548775668       -7.3184826241
 H       -11.8998289697        2.4820611819       -7.4157004863
 H       -14.0009367519        5.8161359332       -5.8399498334
 H       -12.9445662946        6.2206954250       -7.1666874061
 H       -12.7450776522        7.1151668906       -5.5653382765
 H       -10.2134574866        3.9806792244       -6.0669428057
 H        -9.8726257810        5.6999459827       -5.5233744909
 H       -10.6367473586        5.3439456463       -7.0805748691
 H       -11.7922380532        3.6955032959        1.3551231800
 H       -13.3793234286        2.9065987943        1.1797288988
 H       -13.1334253109        3.8721962401        2.5784054575
 H       -15.3186561776        5.8575867722        0.0659618342
 H       -15.2189584830        5.7513145822        1.8630891781
 H       -15.4515544816        4.3819153908        0.7318533501
 H        -8.6925505480        9.0568774741        5.3182007903
 H        -7.0869632123        8.7024810834        4.7049843622
 H        -7.6886176205        7.7460936203        5.8752794010
 H        -8.4852057748        7.0856782784        1.8057724134
 H        -7.0751850245        7.5984842440        2.7303920694
 H        -8.2168502269        8.7660201185        2.2029077283
 H        -8.5014926792       -0.5629674868        6.0725419835
 H        -9.2466147068        0.0231070347        4.4320036977
 H        -9.9654612459        0.4711559456        6.0460553427
 H        -6.6124842331        0.2292843834        6.7975955442
 H        -7.9772298099        0.7562181043        7.7699091192
 H        -6.6531998384        1.9084483746        7.4113632257
 H        -5.7213511265        3.5281908799       -1.8379344709
 H        -5.4009686213        1.8663364205       -1.2877492591
 H        -5.1450861473        3.1737713447       -0.1527005998
 H        -7.7506797893        4.9450862423       -0.7031894579
 H        -7.2830129126        4.4976189893        1.0444110005
 H        -8.8918953241        4.1965518213        0.3803840477
 H        -8.8141668660       -1.7339161116       -2.9837560276
 H        -8.7227924422       -1.4099109486       -4.7584156916
 H        -9.9122442612       -2.4682659368       -4.1334271062
 H       -12.5058612592        0.1297202369       -3.9052836434
 H       -12.1395823177       -1.6134037235       -4.1723812967
 H       -11.6420730996       -0.3562793089       -5.3431312002
 Na      -11.3490264850        2.9249564425       -2.9271200784
