117

 C       -11.2294310744       -1.0467330607       -0.7386250071
 C       -10.9564675572       -0.2538154785       -2.0853839044
 O       -11.7925278407        0.5650653629       -2.3695750642
 C        -9.9587902621       -0.7900615384       -3.2027898771
 C        -9.3098658794        0.3471818520       -4.0063121155
 O       -10.0749566314        1.0687061104       -4.6093288717
 C        -7.8102901099        0.5450976120       -4.0580051639
 C        -7.0929670272        0.9834365441       -2.8189610844
 C        -7.7277494076        2.0092503099       -1.9185998042
 O        -8.9226975214        2.1705404149       -1.9595226208
 C        -6.9342585782        2.5891879960       -0.7523840854
 C        -6.9524859397        1.3827618305        0.4167792877
 O        -7.3995272578        0.2847253621        0.1659742476
 C        -6.4538180009        1.7601320836        1.7666246729
 C        -7.5639604386        1.7872099782        2.8497847609
 C        -6.9908663776        2.1519528586        4.2262143958
 O        -5.8832181627        2.7114092336        4.3707838347
 C        -7.7184894934        2.0120518964        5.5939068014
 C        -8.3442189113        3.5351625204        5.6045407101
 O        -9.4021309902        3.7419184673        5.0949809901
 C        -7.4194497703        4.6805342369        5.9724435311
 C        -8.0774761212        6.0176439802        5.7455272307
 C        -8.2775096340        6.2609723733        4.2537150068
 O        -7.9458013611        5.4217622741        3.4118610646
 C        -8.8331882544        7.6851314646        3.7978622816
 C       -10.3883908592        7.5530399312        4.1233372105
 O       -10.7809818956        7.2799645206        5.2421269699
 C       -11.3816294910        7.5489634437        2.9460246005
 C       -11.4658108109        6.2570844191        2.1706762315
 C       -12.4327707471        6.3499346142        1.0968566540
 O       -12.7770680387        7.4598836802        0.7010608346
 C       -13.2811347021        5.0750747504        0.4898177740
 C       -12.7926683830        4.7851331729       -0.9854867648
 O       -12.3904382600        3.7039051384       -1.3405792223
 C       -12.8786335773        6.0857363376       -1.8716931716
 C       -13.3706640499        5.8987121084       -3.3218803418
 C       -12.3349876661        4.9601215050       -4.1809106866
 O       -11.1850161767        4.8605454907       -3.9287878905
 C       -12.9052761687        4.4331914165       -5.5996452538
 C       -13.8404965881        3.2140228739       -5.2524936897
 O       -13.4008311349        2.1663950108       -4.7728216851
 C       -15.3220912969        3.2883131484       -5.5838026257
 C       -13.5497917402        5.5725555322       -6.4994347152
 C       -11.7314839343        3.8158390770       -6.3363144129
 C       -13.1172504408        3.8732418122        1.4244951563
 C       -14.8286061865        5.4220226157        0.4829743541
 C        -8.1481323439        8.8773124433        4.6523712766
 C        -8.4728479733        7.8779405060        2.3009286127
 C        -8.8407041487        0.9693995540        5.5975845304
 C        -6.6668816684        1.6929016544        6.7251365571
 C        -5.4351136341        2.9688042646       -1.0352117907
 C        -7.6703939244        3.7707536445       -0.1090141700
 C        -9.0236188523       -1.8049218004       -2.6177755049
 C       -11.0466968157       -1.5079732218       -4.0933237997
 H       -11.0989909548       -0.2597313238        0.0378707614
 H       -10.5503434525       -1.8451685781       -0.4650321022
 H       -12.1794451031       -1.4509474440       -0.7560396128
 H        -7.4607608776        1.2564533069       -4.8538458714
 H        -7.3264816314       -0.4185752266       -4.3162958856
 H        -6.0955640595        1.3412724742       -3.0050657657
 H        -6.9253627339        0.1067031229       -2.1775053738
 H        -5.9979407526        2.7891309609        1.7362539512
 H        -5.6377142258        1.1253659949        2.0457178784
 H        -8.0418791004        0.7804548075        2.9411452604
 H        -8.4454463691        2.4511492594        2.5854897439
 H        -6.5576931919        4.6024288731        5.3729101035
 H        -7.0526957627        4.6075430911        7.0073441314
 H        -7.3732032417        6.8673535255        5.9544156515
 H        -9.0037687102        6.1746419113        6.3477681367
 H       -11.2402880556        8.3600405589        2.2276506930
 H       -12.3347917665        7.8842203030        3.4110453893
 H       -11.6400454528        5.3798544973        2.7622322269
 H       -10.5117354500        6.0556387422        1.7793819301
 H       -11.8470204696        6.4464869479       -1.9487805267
 H       -13.4828466956        6.8328893011       -1.3153947931
 H       -13.4323050744        6.8766008452       -3.7899587517
 H       -14.3588674525        5.4145547235       -3.3089086854
 H       -15.5862058454        2.3577971388       -5.9701943147
 H       -15.5309253548        4.0774804639       -6.3425321111
 H       -16.0037184641        3.5279726377       -4.7192203341
 H       -14.4674918471        6.0009612213       -6.0937215332
 H       -13.8594598364        5.2923827056       -7.5049002525
 H       -12.8197844031        6.4174827239       -6.6814935121
 H       -11.9503014328        3.8280939057       -7.4261070427
 H       -11.5280528737        2.7614663624       -5.9808376891
 H       -10.7561084401        4.3346493055       -6.1894478477
 H       -12.0609079964        3.5818691355        1.4130746181
 H       -13.5261542477        2.9592002794        1.0374707648
 H       -13.5355408319        4.0751817107        2.4229512401
 H       -15.1507446296        6.4303630045        0.2437934971
 H       -15.0970614083        5.2685379950        1.5066845943
 H       -15.4826421865        4.7156215667       -0.1305175023
 H        -8.0758216229        9.7161169140        4.0118032957
 H        -7.1777829893        8.5086384554        4.8983761973
 H        -8.6633084633        9.1184034663        5.5848352188
 H        -8.7673432658        7.0052691948        1.7819528756
 H        -7.4269103639        8.0184003092        2.1930407471
 H        -8.9196510853        8.7236307065        1.8410879271
 H        -8.5435882879       -0.0713460553        5.3548803926
 H        -9.7573234248        1.3823107664        5.0654188510
 H        -9.1885353423        0.7282760859        6.5845699464
 H        -6.7901742911        0.6703862575        7.2034020525
 H        -6.7354631341        2.4129719702        7.5154277225
 H        -5.6605712017        1.8734537371        6.2836020928
 H        -5.4266005109        3.7419430138       -1.8704698674
 H        -4.8312958777        2.0900325708       -1.3464728979
 H        -4.9648509106        3.3568130351       -0.1392258040
 H        -7.8137468872        4.6081328205       -0.9080124434
 H        -7.1130696640        4.1175970817        0.7462565384
 H        -8.7250825068        3.5542333371        0.2346654883
 H        -8.5186502577       -1.4448896638       -1.7366572749
 H        -8.3619969506       -2.1266979645       -3.3505495509
 H        -9.5355467269       -2.7419981982       -2.3171891238
 H       -11.7531969268       -0.7407586305       -4.5625378438
 H       -11.6605566671       -2.2176614655       -3.5056831193
 H       -10.5338516256       -2.0179195321       -4.9689207623
 Na      -11.3083830429        2.4412439345       -3.4114086751
