117

 C       -11.2821384303       -1.2512402610       -0.8711294738
 C       -10.9493095407       -0.2934555685       -2.0165215832
 O       -11.4911745447        0.7965401638       -1.9473981200
 C        -9.9816486028       -0.7950221222       -3.2630487699
 C        -9.2668783259        0.3065836814       -3.9922918966
 O        -9.8871489305        1.1325349262       -4.6340400764
 C        -7.6985295351        0.4107333317       -4.1100124088
 C        -6.9868904116        1.1329496453       -2.9239775436
 C        -7.8285025864        1.9032300574       -1.8904796253
 O        -8.9720428057        2.1992031079       -2.1531804017
 C        -7.0980428023        2.4559808635       -0.6408216196
 C        -7.0978171719        1.3540024944        0.4672878173
 O        -7.4982141882        0.2382504275        0.2134717073
 C        -6.5385796667        1.7353654994        1.8824949149
 C        -7.6197314940        1.6175501392        2.9245441958
 C        -6.9178469213        2.1099267428        4.2465228477
 O        -5.8798577030        2.6933090957        4.1995632605
 C        -7.6585893022        1.9696253090        5.5248694150
 C        -8.4117839910        3.3374883491        5.4964852619
 O        -9.5601620259        3.4096608214        5.0514438534
 C        -7.6416087745        4.4794788470        6.1088845149
 C        -8.0313969874        5.8971414639        5.7058125531
 C        -8.0635163006        6.2460496552        4.1826809890
 O        -7.7973065922        5.4424681715        3.3314009686
 C        -8.6527662468        7.6543938665        3.8378304350
 C       -10.2607595197        7.4805498723        4.1262037501
 O       -10.5890703387        7.3783459226        5.2707264000
 C       -11.3623458754        7.6230261823        2.9979466887
 C       -11.6300941589        6.2545157287        2.2807582691
 C       -12.6525798576        6.3068507712        1.0004043163
 O       -12.8185438259        7.3983561566        0.4813355483
 C       -13.3481518180        5.0399163328        0.4951099817
 C       -12.8693957011        4.8683480523       -0.9975533740
 O       -12.6057728407        3.7462225846       -1.3618426507
 C       -12.9499088888        6.1528700338       -1.9684319947
 C       -13.5425341025        5.7716218207       -3.3071124288
 C       -12.4300892116        5.0946909566       -4.1011661444
 O       -11.3112076475        4.8539425015       -3.6257225020
 C       -12.7965717968        4.5754076473       -5.5977639361
 C       -13.7850254348        3.3895259268       -5.2545074210
 O       -13.4621955245        2.5925882551       -4.4076755740
 C       -15.1552092172        3.3117014636       -5.9727617038
 C       -13.4492023780        5.6981331453       -6.4143438813
 C       -11.4668332034        3.9903661040       -6.3374899834
 C       -13.0689643473        3.7649917510        1.2668216604
 C       -14.8447710451        5.3633364448        0.4685888689
 C        -8.1961560248        8.8246842350        4.8034279567
 C        -8.4160807104        8.0160790256        2.3722473484
 C        -8.7526875636        0.8796447993        5.6270220213
 C        -6.7788566419        1.8421954246        6.7844311402
 C        -5.6527579187        2.7319206076       -1.0748097351
 C        -7.7813846695        3.7587193270       -0.1499694860
 C        -9.0731875652       -1.8992113125       -2.8413880158
 C       -10.9913439016       -1.3690039332       -4.3219977559
 H       -11.9590893112       -0.8465151807       -0.1164115574
 H       -10.3730705609       -1.5285937098       -0.4197127995
 H       -11.6809266295       -2.2145319727       -1.3704192881
 H        -7.4211581689        0.9287437760       -4.9992386604
 H        -7.1966816242       -0.5582729127       -4.1303939996
 H        -6.2925850800        1.9398873818       -3.2875627414
 H        -6.3609761508        0.3988971453       -2.3808778523
 H        -6.1226282027        2.7331008351        1.9357627310
 H        -5.7161475218        0.9940538586        2.1336572556
 H        -8.0141700058        0.6082620105        2.8057192334
 H        -8.4950791411        2.2099096408        2.7057872508
 H        -6.5359897439        4.2380255078        5.8937882043
 H        -7.6860906944        4.4763734816        7.2030383410
 H        -7.4510849531        6.6636997892        6.1852737481
 H        -9.0331688955        6.0701820650        6.0987156294
 H       -10.8920128800        8.3548725508        2.2934180696
 H       -12.2320970487        8.1267249311        3.4393254369
 H       -11.8413658450        5.4775311102        3.0471198223
 H       -10.6566897142        5.8205274288        1.9095285924
 H       -11.9187041286        6.5397661344       -2.1123144301
 H       -13.5507096120        6.9143735751       -1.4548022194
 H       -13.8365568676        6.6462646549       -3.8865771145
 H       -14.3980507294        5.1213071935       -3.2190180325
 H       -15.5038969160        2.2331914774       -5.9643318330
 H       -15.1331196196        3.6873258649       -7.0092148388
 H       -15.8437766117        3.9235024607       -5.4914398962
 H       -14.3990514908        6.0975846952       -6.0637023475
 H       -13.7015493117        5.4270725856       -7.4540751793
 H       -12.8198227727        6.5393400992       -6.4614340798
 H       -11.5371853141        3.1819798683       -7.0523058064
 H       -10.6963542157        3.7615429738       -5.6528389772
 H       -11.0840858374        4.8494729715       -6.8939079212
 H       -12.0299158112        3.5198311147        1.3178025323
 H       -13.6093496761        2.8842006892        0.8615613731
 H       -13.4754631969        3.8777244115        2.2451116924
 H       -14.9684375669        6.1352575118       -0.2944388984
 H       -15.3615992293        5.7491082732        1.3896406715
 H       -15.4277340839        4.5080053326        0.2117766782
 H        -8.9337035710        9.6533959156        4.8536518625
 H        -7.1680947627        9.2050070495        4.4531340295
 H        -8.1730692178        8.3393044020        5.7600992029
 H        -8.8374059515        7.2195732245        1.7263995297
 H        -7.3132321406        8.0515143161        2.2172751798
 H        -8.8424308907        8.9960160965        2.0616281450
 H        -8.2496657224       -0.0679456557        5.6723094891
 H        -9.4998882752        0.9922873464        4.9073601817
 H        -9.3101714473        0.8171302634        6.5704522290
 H        -6.9270222458        0.8460741326        7.1543782522
 H        -7.0720253753        2.5149520528        7.6217164519
 H        -5.7304587260        1.9769254583        6.5515049319
 H        -5.6371168089        3.3502009673       -1.9150159485
 H        -5.0661368923        1.8460869626       -1.1842183135
 H        -5.1424648482        3.1383667180       -0.1935137674
 H        -8.2841030441        4.2675968272       -0.8805106533
 H        -7.0565364220        4.3769274934        0.3890754538
 H        -8.4648234767        3.5173955680        0.6024937057
 H        -8.4249210694       -1.5201879477       -2.0361948569
 H        -8.5169826190       -2.3515428460       -3.7241395965
 H        -9.6001277060       -2.7328204001       -2.4533821467
 H       -11.8055848806       -0.7370441593       -4.5601214407
 H       -11.3802876682       -2.2291442361       -3.8494435138
 H       -10.5289735223       -1.6019097874       -5.1867777465
 Na      -11.1409382792        2.6805087553       -3.2914060565
