117

 C       -11.3080710877       -1.1158654839       -0.7955192023
 C       -10.9671415814       -0.3001438620       -2.0481408534
 O       -11.6003929220        0.7086054844       -2.2602935491
 C       -10.0055291826       -0.8483479445       -3.1388965475
 C        -9.3501303919        0.4043631827       -3.9154463368
 O        -9.9169292900        1.1747891037       -4.6904270927
 C        -7.7541292646        0.4734634673       -4.1015205691
 C        -6.9516064186        1.0564498330       -2.9227307763
 C        -7.8137733347        1.9664599051       -1.9067927062
 O        -9.0165527682        2.2093550863       -2.0240720742
 C        -6.9863120959        2.5070269785       -0.6590498326
 C        -6.9908229220        1.3951179650        0.4313324524
 O        -7.4472613867        0.2791589619        0.2346635181
 C        -6.4853983923        1.7703244098        1.8192761541
 C        -7.5724401556        1.7361669396        2.9187183821
 C        -6.9628045903        2.1236625310        4.2246512272
 O        -5.9057686964        2.7430667093        4.1576656451
 C        -7.7378328626        1.9814548215        5.6377293768
 C        -8.4095256950        3.3699456793        5.5789387196
 O        -9.4696143887        3.5294219127        5.0205196093
 C        -7.4903557811        4.5473468270        6.0379014234
 C        -8.0185029211        5.9546801331        5.7546368525
 C        -8.1486705649        6.2663228210        4.2602840651
 O        -7.9150782260        5.4835713455        3.3560441466
 C        -8.7557317535        7.6298314308        3.8527630697
 C       -10.2899658901        7.5256177067        4.1498244686
 O       -10.6608409046        7.3077802543        5.3059875735
 C       -11.2492755136        7.6073227448        2.9441132623
 C       -11.4544367838        6.2759987460        2.2313647007
 C       -12.5977353162        6.3836610522        1.0863730242
 O       -12.8315573140        7.4167475095        0.4872114441
 C       -13.2912094151        5.0587748683        0.5592713424
 C       -12.8773122997        4.8460374732       -0.9935488278
 O       -12.4932607690        3.7563776019       -1.4089064681
 C       -12.9031697187        6.0588465832       -1.8919179036
 C       -13.4048968043        5.7898507936       -3.3245944523
 C       -12.4265896176        5.0937144532       -4.2495121988
 O       -11.3136745533        4.8811423810       -3.7434560222
 C       -12.8482535775        4.5281290602       -5.5548023510
 C       -13.8295261883        3.3028520687       -5.2902936646
 O       -13.4124011440        2.3946628073       -4.5922005570
 C       -15.2631317687        3.3340772181       -5.8318255759
 C       -13.4586270537        5.5771372505       -6.3994293056
 C       -11.6465823839        3.8786583987       -6.2858347806
 C       -13.1330195021        3.7622073078        1.3902294457
 C       -14.8276214277        5.3865340510        0.4494054410
 C        -8.1836023249        8.8107745335        4.6684965474
 C        -8.5088282900        7.9561563266        2.3655523273
 C        -8.8795325437        0.9230174632        5.6501177770
 C        -6.7030784089        1.8107570622        6.7718420357
 C        -5.5259988553        2.8442216455       -1.0882810270
 C        -7.7123579390        3.7395382960       -0.1125463415
 C        -8.9766327635       -1.9387937648       -2.7231115968
 C       -11.0744607892       -1.4053798347       -4.1625516610
 H       -11.5517320275       -0.5152844773        0.0002841863
 H       -10.4057782287       -1.7310885389       -0.5011861114
 H       -12.0702634244       -1.7988235651       -1.0500114690
 H        -7.5485351926        1.1885609261       -4.9020043550
 H        -7.2513916037       -0.4704352717       -4.4155155496
 H        -6.1084790118        1.7291669440       -3.2243569575
 H        -6.4860456654        0.2714546306       -2.2992507284
 H        -6.0207610799        2.7259467979        1.8349117695
 H        -5.6549059444        1.0126191473        2.0751207629
 H        -8.1314278786        0.7819817368        2.8491075514
 H        -8.4042723278        2.5048188916        2.7364402589
 H        -6.5273167204        4.3574889360        5.5589424816
 H        -7.2499053760        4.5232183892        7.1365159676
 H        -7.4849108927        6.7704648973        6.1751021974
 H        -9.0674895438        5.9880318644        6.1976909518
 H       -10.9952192054        8.4515827613        2.2916813559
 H       -12.2365830473        7.9603098708        3.3946514092
 H       -11.6980658142        5.5680134736        2.9477748420
 H       -10.5610260659        5.8112258169        1.8048360747
 H       -11.7729813040        6.3632784343       -1.9464105787
 H       -13.4682249293        6.8569081456       -1.4434252626
 H       -13.5942061860        6.7494692662       -3.7607254506
 H       -14.3201442434        5.2420545099       -3.3068920858
 H       -15.6116889966        2.3320725310       -6.1021385421
 H       -15.4121969247        3.9845450140       -6.6199398834
 H       -15.9337856053        3.7562927410       -4.9945810165
 H       -14.4570950923        5.9019414568       -6.1148797260
 H       -13.6510495348        5.1764941099       -7.3825832388
 H       -12.8632735803        6.5037232831       -6.5783369640
 H       -11.8315323808        3.4185994286       -7.2653388410
 H       -11.0515924295        3.2395898487       -5.6242661118
 H       -10.9788495668        4.7259697581       -6.4711178159
 H       -12.0894379542        3.4215277382        1.4433519462
 H       -13.6155228145        2.9511173158        0.9499984003
 H       -13.5883867733        3.8943351853        2.3718732758
 H       -15.0310380139        6.3195162170       -0.1348186595
 H       -15.2795644176        5.5464461932        1.4260627550
 H       -15.4117731155        4.5667895108       -0.0059515177
 H        -8.5134391225        9.7815054722        4.2659076051
 H        -7.1388749734        8.6932715605        4.5054776411
 H        -8.4245240254        8.6850141027        5.7409227450
 H        -8.7980860991        7.0819189543        1.7838305750
 H        -7.4814124773        8.2002565643        2.1888308652
 H        -9.0836555856        8.8037284273        2.0198645292
 H        -8.4765793021       -0.0443808416        5.5081529996
 H        -9.6831283719        1.2333244771        4.9715586214
 H        -9.4036748525        0.6857310961        6.6233434411
 H        -6.8643113321        0.9054726612        7.3427542329
 H        -6.7434536491        2.6730474338        7.5213507313
 H        -5.6985291496        1.8600818876        6.3206646175
 H        -5.5357606469        3.5135935822       -1.9454917737
 H        -4.9474780769        1.9336135636       -1.2924093488
 H        -4.9844645151        3.2459416930       -0.2299179252
 H        -8.1510977060        4.2915034521       -0.9192176109
 H        -7.0802992553        4.3472503915        0.5415294514
 H        -8.5688863322        3.4412948048        0.5222617979
 H        -8.4342004136       -1.6362555217       -1.8427858560
 H        -8.3411292823       -2.1285582328       -3.5711348126
 H        -9.4015567897       -2.9391956226       -2.5195100106
 H       -11.8034259188       -0.7154151110       -4.3891135958
 H       -11.5595327475       -2.2403752120       -3.7020241495
 H       -10.5951396696       -1.7070505116       -5.1423482784
 Na      -11.1754823741        2.4776394510       -3.3627763226
