117

 C       -10.4838967987       -0.4847232442       -0.3794035273
 C       -11.0359109058       -0.5345840341       -1.7628207485
 O       -12.1620298060       -0.1491396360       -2.0459681064
 C       -10.0754189437       -1.1173061934       -2.8472048063
 C        -9.4911383921        0.0314653618       -3.7095532380
 O       -10.2636021080        0.5861734968       -4.4987116483
 C        -7.9778085921        0.2957061132       -3.9205067931
 C        -7.1542282163        1.1307088843       -2.9270837342
 C        -7.8854187805        2.0435797007       -1.9349199243
 O        -9.0350572412        2.3290920784       -2.1127536698
 C        -7.0708560369        2.8243271963       -0.7852361490
 C        -6.9298227621        1.7586579535        0.4068568134
 O        -7.3794274597        0.6513577874        0.2146383939
 C        -6.2786057994        1.9665159573        1.7839276205
 C        -7.3036261512        2.1392786695        2.9050962137
 C        -6.7173718825        2.2439837204        4.2896609053
 O        -5.5276346727        2.5540653349        4.4270460898
 C        -7.6863165948        2.2519434793        5.4565677351
 C        -8.1000588197        3.7037134438        5.7098065098
 O        -9.2738642058        3.9310131317        5.8637615020
 C        -7.1360818444        4.8760960965        5.8628667380
 C        -7.8828053558        6.2137260998        5.6314375722
 C        -8.1526999813        6.4252854380        4.1730866380
 O        -7.9381324735        5.5579966509        3.3322450558
 C        -8.8222383296        7.7617941024        3.6376380351
 C       -10.3953149203        7.6401652793        4.0347790726
 O       -10.7799393623        7.5246847119        5.1560114324
 C       -11.3467331527        7.6878831171        2.8440141429
 C       -11.8083702699        6.3471252947        2.3495245282
 C       -12.4819235387        6.4249578626        0.9741744585
 O       -12.6597550212        7.4659239636        0.3661693228
 C       -13.0557266073        5.0384921106        0.2342864508
 C       -12.4346457740        4.7485953687       -1.1722495148
 O       -12.0938019270        3.6464655478       -1.4880860612
 C       -12.2565159116        5.8741433705       -2.1647132376
 C       -12.9541094097        5.8931787799       -3.5058961658
 C       -12.3672036380        4.8706286961       -4.4471524958
 O       -11.2536721911        4.4466135001       -4.2598585064
 C       -13.3340376669        4.2371874758       -5.5624938197
 C       -13.9458390116        3.0144853238       -4.8822293638
 O       -13.3175011611        2.1213805139       -4.3260877908
 C       -15.4768424393        2.9021375638       -4.9766554615
 C       -14.3649667701        5.2274825839       -6.2139384951
 C       -12.4295945881        3.6852650016       -6.7759092201
 C       -12.9124440711        3.7161959497        1.0999590798
 C       -14.4988414234        5.2243619362       -0.0334392163
 C        -8.4584337021        9.0574463770        4.3290023817
 C        -8.5928050243        7.8766894235        2.0871921849
 C        -9.0391726927        1.4886507172        5.1518125724
 C        -7.0712741902        1.7137880350        6.7631649697
 C        -5.6938290980        3.4124483462       -1.2509465845
 C        -7.9050923295        3.9757812795       -0.2315844519
 C        -8.9047140383       -1.8487853455       -2.3034109816
 C       -10.8346203724       -2.1402324878       -3.7487968531
 H        -9.6410000151       -1.2313852871       -0.0895916743
 H       -11.2884238202       -0.5587494165        0.3002881025
 H       -10.0404549661        0.5289158750       -0.2351079713
 H        -7.8472326748        0.8016889961       -4.8530874114
 H        -7.4091969260       -0.6042460020       -3.9758811952
 H        -6.4945555607        1.8147275316       -3.5159354136
 H        -6.4745630879        0.4813972593       -2.3485531678
 H        -5.6108737247        2.8310001319        1.7226531174
 H        -5.5675504621        1.1371506799        1.9887316165
 H        -8.0257293080        1.4123633869        2.8678434341
 H        -7.7401709060        3.1177891280        2.6950167489
 H        -6.3091067537        4.7452749425        5.1810766314
 H        -6.7013612411        4.9619623180        6.9080312908
 H        -7.3039061073        6.9972916849        5.9829899185
 H        -8.8960062680        6.1242679424        6.0613510174
 H       -10.9907974159        8.1808761100        1.9452244828
 H       -12.3091266756        8.2490353831        3.1073574041
 H       -12.5982612148        5.9044877464        2.9885479967
 H       -10.9759399041        5.5477278918        2.2789000815
 H       -11.1792182041        6.0436519187       -2.3383965463
 H       -12.6116386900        6.7562332181       -1.6767475814
 H       -12.9172432901        6.9343861136       -3.8835260368
 H       -14.0340625793        5.6799827129       -3.3500604906
 H       -15.8093573632        2.3559659905       -4.1776551395
 H       -15.7469145499        2.4021809990       -5.9173892356
 H       -16.0407205307        3.8649174193       -4.9204192170
 H       -15.0570125968        5.7071459284       -5.5232300244
 H       -14.9408687648        4.7104423959       -6.9591338675
 H       -13.9247544122        6.0876308530       -6.8209379640
 H       -12.0874306580        4.5504894119       -7.3595267878
 H       -12.9675502096        2.9283320982       -7.4236870406
 H       -11.5882774865        3.2505875390       -6.2501265980
 H       -11.7964550916        3.6040824684        1.2575117173
 H       -13.4294060762        2.8410661243        0.7306629512
 H       -13.2739036344        3.9693772995        2.1371743277
 H       -14.7173055174        6.2070689973       -0.4454635015
 H       -15.1041250172        5.1346940096        0.8212778793
 H       -14.7655569056        4.4847711782       -0.8388225452
 H        -8.9091445332        9.9466491480        3.8078817348
 H        -7.4130403093        9.3124317243        4.4272898052
 H        -8.9374627267        8.9748512485        5.3483751686
 H        -9.0774034192        7.0646159737        1.5688042742
 H        -7.5651153988        7.7195967532        1.8570342948
 H        -8.9956998117        8.7563942138        1.6300356822
 H        -8.8920160807        0.5469063033        4.6681036852
 H        -9.7208838572        1.9055754428        4.4200077061
 H        -9.5671964620        1.3879618179        6.0439921705
 H        -6.4828008509        2.5619148103        7.1623479886
 H        -6.4942978636        0.8373428331        6.6960131155
 H        -7.9005314963        1.5564982171        7.4324927981
 H        -5.7706113312        4.3294795186       -1.8955201343
 H        -5.1482469331        2.6480277701       -1.8297522262
 H        -5.1655389743        3.7382588119       -0.3681661172
 H        -8.6272384533        4.3766070964       -0.9948029118
 H        -7.2354921645        4.7676699293       -0.0828192099
 H        -8.4311382101        3.7100424268        0.6736779441
 H        -8.2579585716       -1.1982305693       -1.7424407610
 H        -8.2559944960       -2.1158354680       -3.0780359405
 H        -9.1288696807       -2.7957609873       -1.7447015013
 H       -11.6730915075       -1.6823787088       -4.3284035858
 H       -11.2505966598       -2.9429157155       -3.1986024077
 H       -10.1457601807       -2.6291439698       -4.3891100726
 Na      -11.3043631727        2.3217064041       -3.1439756332
