117

 C        -9.5501891367       -1.4634807915        0.4252813882
 C        -9.8713478000       -0.6654952434       -0.8325005191
 O       -10.2647843801        0.4632940199       -0.8333747815
 C        -9.7321252558       -1.3448111492       -2.2505755053
 C        -9.2396119337       -0.1765454767       -3.2822705339
 O       -10.1353306114        0.3848215152       -3.8675078855
 C        -7.7937293291        0.1593022616       -3.5112320246
 C        -7.1479587922        1.1297582434       -2.4514043119
 C        -7.9845170014        2.4054206144       -2.2218342579
 O        -8.7581894608        2.8556587011       -3.0469049764
 C        -7.6555246698        3.1780539135       -0.9336085359
 C        -7.6181350016        2.1747277102        0.3224666721
 O        -8.0896984657        1.0665736638        0.2119211506
 C        -6.9349792078        2.5544836539        1.5577244808
 C        -7.7114884809        1.9016532604        2.7183870684
 C        -6.8399880411        2.1435580039        3.9990776539
 O        -5.6230427911        2.1812863613        3.8599840444
 C        -7.5609206830        2.4079313539        5.3224353243
 C        -8.3201558747        3.9069307837        5.2858869065
 O        -9.4643354491        3.9610785402        4.9268631060
 C        -7.3972797400        5.0772722228        5.6520577038
 C        -7.9446800985        6.4095682753        5.2542956142
 C        -8.2004319966        6.6416957622        3.7000615152
 O        -7.8350372196        5.7557644368        2.9544690713
 C        -8.8230258799        7.9976115908        3.2217926890
 C       -10.3744151238        7.9792476731        3.6713385114
 O       -10.6160639137        8.4474879080        4.7682559066
 C       -11.5928272437        7.7310015197        2.7403074692
 C       -11.6576195132        6.2784801071        2.0762451363
 C       -12.1548944907        6.3762118311        0.5731762754
 O       -11.8703617449        7.3980150988       -0.0320109602
 C       -13.0928350131        5.2485281807        0.0163137864
 C       -12.3211607612        4.7605709817       -1.2770769631
 O       -11.9085304194        3.6079939396       -1.1305402992
 C       -11.9212494471        5.6674541189       -2.4461176148
 C       -12.9546093320        5.5042161159       -3.5953361554
 C       -12.7078540797        4.2363276666       -4.4533656495
 O       -11.6294151623        3.7479646988       -4.4320200515
 C       -13.8584622101        3.6395674269       -5.3682649912
 C       -14.3638118984        2.2699638955       -4.4462437987
 O       -13.4770188696        1.7085205499       -3.8528076951
 C       -15.8418165595        1.9877726963       -4.2224131619
 C       -15.0470296376        4.6095886249       -5.5943376530
 C       -13.1369996921        3.2050487621       -6.6583688496
 C       -13.1639601308        4.0685378201        1.0313467485
 C       -14.4908331431        5.7495333526       -0.4177894162
 C        -8.2118311065        9.2711298157        3.8554574395
 C        -8.6670447512        8.0565062339        1.7181244981
 C        -8.7116930293        1.4376331136        5.4808211804
 C        -6.5181210003        2.2928178057        6.4606389753
 C        -6.2445601715        3.7648694790       -1.1694191709
 C        -8.5629543574        4.3883792878       -0.6931958956
 C        -8.6470376914       -2.4134018161       -2.1015889143
 C       -11.1586559470       -1.8068923249       -2.7619513455
 H       -10.1011322045       -1.0380778649        1.3034740993
 H        -8.4535476632       -1.4873379068        0.6479196907
 H        -9.8608548665       -2.4258430645        0.2486238364
 H        -7.5842022244        0.5954643005       -4.5332822822
 H        -7.2214209512       -0.7919182895       -3.4714631071
 H        -6.1924444060        1.4313222401       -2.8823245677
 H        -6.9741503236        0.6619607346       -1.4773727633
 H        -6.8021041376        3.6687779112        1.7473831574
 H        -5.9885068837        2.0656064638        1.4989828689
 H        -7.8737715518        0.8403435008        2.4519607887
 H        -8.7623687499        2.3184592722        2.8969917236
 H        -6.4848904101        4.8995312658        5.1142977762
 H        -7.1220099515        5.0940063684        6.7238989723
 H        -7.2145522014        7.2225467410        5.5369542239
 H        -8.8516531384        6.7361033414        5.8295214877
 H       -11.5442542650        8.4114692918        1.8963571702
 H       -12.4751515955        8.0022168882        3.3325623663
 H       -12.2191272228        5.6486543813        2.7446504232
 H       -10.6818306159        5.8182946810        1.9182621163
 H       -11.0057246113        5.3965291647       -2.8971964700
 H       -11.8821100646        6.7369772467       -2.0221572483
 H       -12.7697623974        6.2446822438       -4.3385626446
 H       -13.9731855043        5.6450977112       -3.2520539667
 H       -15.8974300359        1.1525667653       -3.4464294352
 H       -16.4685869538        1.6918160845       -5.0788383676
 H       -16.2225097828        2.8860421072       -3.7815341457
 H       -15.6156515545        4.6922010825       -4.6780642037
 H       -15.7025554006        4.3627911785       -6.4310439729
 H       -14.6213627024        5.5396666967       -5.8617604175
 H       -12.4946418934        4.0337730784       -6.8795847862
 H       -13.9119345788        3.0640893395       -7.3495828384
 H       -12.6046570926        2.2877827059       -6.4800212135
 H       -12.1814758075        3.7439740781        1.1897906910
 H       -13.6461834891        3.1675891712        0.5801325923
 H       -13.6520420838        4.3915386036        1.9178486558
 H       -14.4126556971        6.4647937656       -1.2093682819
 H       -14.8946080681        6.3058163409        0.4276932442
 H       -15.0998462594        4.9066905944       -0.7469800996
 H        -8.8640962710       10.1261872346        3.6629925110
 H        -7.1343448687        9.4111445973        3.4642194124
 H        -8.0246997137        9.2004009166        4.9121596769
 H        -9.1578130457        7.3052057244        1.1191927610
 H        -7.6035217190        7.8673790398        1.4711589956
 H        -8.8943938810        9.0768844281        1.3664389112
 H        -8.5268829900        0.3846148576        5.4847479215
 H        -9.5355358218        1.7892757478        4.9087602540
 H        -9.0109840162        1.5519925247        6.5005524872
 H        -6.8728026828        1.6657067664        7.2620474412
 H        -6.3356660152        3.2420753328        6.9104938248
 H        -5.5575650938        1.9871145009        6.1042340457
 H        -6.1611900985        4.3501977593       -2.0858069007
 H        -5.4701041779        3.0139939472       -1.2254333205
 H        -6.0703061790        4.5315258617       -0.4295375472
 H        -8.6925158112        4.5761087149        0.3179742208
 H        -9.5378187188        4.1748816615       -1.1386266134
 H        -8.1447910852        5.2570344836       -1.0877950646
 H        -7.9115189452       -2.0741080494       -1.3259878100
 H        -8.0137764342       -2.5341948857       -3.0231172740
 H        -9.1412167018       -3.3374822960       -1.8062954956
 H       -11.7857053318       -0.9995483005       -2.6481430429
 H       -11.5378713999       -2.6004655529       -2.1773173602
 H       -11.0977020065       -2.2016708349       -3.7946076695
 Na      -10.9168956271        2.2471447191       -2.7372114998
