117

 C       -10.0257128259       -1.0801592380        0.2918296811
 C       -10.2581727040       -0.5019765321       -1.0898617124
 O       -10.8265554026        0.5202820170       -1.2964806029
 C        -9.6922014650       -1.3168623691       -2.4428632540
 C        -9.2958263016       -0.2113402403       -3.5153335616
 O       -10.1796329980        0.2075254159       -4.2365131762
 C        -7.8299403998        0.2006930562       -3.7753027536
 C        -7.0200996125        0.9633953070       -2.6357993197
 C        -7.8586060962        2.1850789163       -2.2592925803
 O        -8.7781066487        2.4841640498       -2.9834882863
 C        -7.4787588104        3.0979361003       -0.9831885722
 C        -7.3582025032        2.2546796913        0.3904081710
 O        -7.3309924856        1.0361723303        0.3208862304
 C        -6.9045598914        2.9803036152        1.6438317877
 C        -7.6069442771        2.3844747019        2.8773793925
 C        -6.7960286063        2.3185462453        4.2347518015
 O        -5.6352723490        2.2604799442        4.3122620557
 C        -7.6638343693        2.3488649648        5.5333337970
 C        -8.2349521782        3.7671877774        5.5107466573
 O        -9.4319720058        3.9173268342        5.4181693631
 C        -7.2445687395        4.9116534806        5.5385951853
 C        -7.8957311968        6.3084580625        5.2709232629
 C        -8.1502443815        6.5461002530        3.7424161581
 O        -7.9756498654        5.6237975962        2.9614447391
 C        -8.8366833785        7.8534935570        3.3065752778
 C       -10.3669244118        7.7512142241        3.8447326454
 O       -10.5953734209        7.9752820362        5.0349887549
 C       -11.4614499730        7.6210689058        2.7539414141
 C       -11.5287468825        6.1867882970        2.0570029059
 C       -12.2814118691        6.4105937097        0.7621483899
 O       -12.3794312354        7.5145715588        0.3151604287
 C       -13.0349824967        5.1494180990        0.0100978977
 C       -12.1837869655        4.6813661873       -1.2190161806
 O       -11.7438009555        3.5357576779       -1.2416444287
 C       -11.7727554831        5.7266412572       -2.3169779194
 C       -12.7873941894        5.7272780083       -3.5124178266
 C       -12.5072733361        4.5041142339       -4.4360334431
 O       -11.4173478642        4.0484979575       -4.5436023831
 C       -13.7290971487        3.8796403272       -5.2640294474
 C       -14.3544222964        2.7457485040       -4.5099285965
 O       -13.7307696907        2.1638465979       -3.6063048048
 C       -15.7019434519        2.1265161216       -4.9171792953
 C       -14.8268553809        4.9751111643       -5.6328481202
 C       -13.2225837674        3.2448997501       -6.6995612765
 C       -13.2237491755        3.8563870365        0.9508162754
 C       -14.4485612482        5.7677869950       -0.2723998867
 C        -8.0527008042        9.0950689499        4.0378736999
 C        -8.6998973541        8.0030066405        1.7852363659
 C        -8.8869685395        1.3776454975        5.5952004851
 C        -6.8204983687        2.1484666228        6.8314002566
 C        -6.1527468902        3.9123032903       -1.2425727629
 C        -8.6029423495        4.2335895397       -0.8946431535
 C        -8.5854896025       -2.3614605857       -2.1525337301
 C       -11.0297382909       -1.9482143548       -2.9440377766
 H       -10.1800161665       -0.3491035943        1.0647489429
 H        -8.9719511625       -1.5836761583        0.4083689033
 H       -10.7653186577       -1.9113828393        0.3936749778
 H        -7.8291246526        0.9135695156       -4.6405911267
 H        -7.2587680107       -0.7039458833       -4.1024457017
 H        -6.1537915470        1.4169299605       -3.0929594330
 H        -6.7739596935        0.3460902581       -1.7886231308
 H        -7.1428978857        4.0904018310        1.6254513917
 H        -5.8549527121        2.7124986294        1.7354820456
 H        -7.9400456754        1.3601638386        2.6933109454
 H        -8.5633626121        2.9760998896        3.1232074921
 H        -6.5637802070        4.6671686549        4.7707750333
 H        -6.6454934484        4.9401845936        6.4391972687
 H        -7.2149805868        7.1070536552        5.6498690503
 H        -8.9080191938        6.4611716305        5.7609311248
 H       -11.2684315934        8.3512599623        2.0116649958
 H       -12.3965965709        7.7342837154        3.2733877848
 H       -12.0835026519        5.4941145462        2.6354716605
 H       -10.5108448912        5.8715557397        1.8753947218
 H       -10.8286584297        5.4729863261       -2.6811888324
 H       -11.7923589123        6.7588140065       -1.9285308970
 H       -12.7442798619        6.7083589719       -3.9988541241
 H       -13.8125014030        5.6412082705       -3.0836606920
 H       -15.6913269960        1.0184292822       -4.6172417421
 H       -15.9644656706        2.1357824262       -5.9963718391
 H       -16.4335657906        2.6150000635       -4.3873195310
 H       -15.2379337044        5.4440266639       -4.7453379493
 H       -15.6712938146        4.5470009412       -6.1704334848
 H       -14.3588121205        5.7452763833       -6.2384174719
 H       -13.5549034161        3.9035380329       -7.4882784324
 H       -13.7290228592        2.3002070851       -6.7278541130
 H       -12.1664414926        3.1047881610       -6.6222586261
 H       -12.3070349946        3.4109466324        1.2176034533
 H       -13.7607138049        3.0932861483        0.3505494749
 H       -13.7465280716        4.1504889316        1.8318676190
 H       -14.3786488693        6.8271358782       -0.3747545782
 H       -15.1435863106        5.4296722247        0.4913965116
 H       -14.7983589096        5.3948015427       -1.2776579644
 H        -7.9649079011        9.9310034725        3.3804616558
 H        -7.0382898960        8.8449426346        4.4727780043
 H        -8.6004885006        9.4788951204        4.8320941585
 H        -9.0258282352        7.0737799170        1.2880199416
 H        -7.6268276669        8.1756215825        1.5414424307
 H        -9.1546224990        8.8924251349        1.3031809158
 H        -8.6051365064        0.2940497833        5.8110754595
 H        -9.6043653793        1.4657868617        4.7308640816
 H        -9.5166604054        1.5311767212        6.4408476212
 H        -5.9403463717        1.4759439060        6.5734692920
 H        -7.3972043076        1.7170435248        7.6073817609
 H        -6.4256176350        3.1141578793        7.1787341504
 H        -6.2908954441        4.7197280768       -1.9934696584
 H        -5.3410391918        3.2754593122       -1.5783039414
 H        -5.7357738169        4.3132744460       -0.3431461982
 H        -8.0887104041        5.1656930565       -0.9926149295
 H        -9.2733895785        4.1471386261        0.0204546631
 H        -9.2297328560        4.2040764977       -1.7553611193
 H        -7.6598282111       -1.8309271393       -1.9010361891
 H        -8.4705672850       -3.0595073315       -2.9631949989
 H        -8.7345413353       -2.8800857727       -1.1918274345
 H       -11.6484699196       -1.2164666267       -3.4609063467
 H       -11.6331762539       -2.3932567882       -2.0560019453
 H       -10.8402381057       -2.7282189802       -3.7185537769
 Na      -11.3381146074        1.8321763291       -3.1648358135
