117

 C        -9.5764899921       -1.3043653544        0.3869973856
 C        -9.8866785585       -0.4853396117       -0.8805717473
 O       -10.6225052768        0.4983463122       -0.8407674252
 C        -9.6112254744       -1.2641532481       -2.2637631432
 C        -9.2612304693       -0.1799620098       -3.2971499429
 O       -10.1588530152        0.4154393777       -3.8633010615
 C        -7.7569111157        0.2250685986       -3.6612542448
 C        -7.1326799910        1.1726516917       -2.6610572467
 C        -7.9245528136        2.4412948565       -2.3018663373
 O        -8.7247279806        2.8999271464       -3.0771101148
 C        -7.5705065604        3.1146213304       -0.9557832861
 C        -7.7113299384        2.1743263758        0.2241060326
 O        -8.3567962602        1.1342803623        0.1153703015
 C        -6.9341690502        2.5375885447        1.5716001108
 C        -7.6762855733        2.1107525477        2.8292846978
 C        -6.7994615524        2.1939245531        4.0701824928
 O        -5.6113134601        2.2555214075        4.0989210981
 C        -7.4939591804        2.4467684037        5.3970843849
 C        -8.2238601141        3.8816489149        5.1933968708
 O        -9.2740597599        3.9459603138        4.5720471207
 C        -7.4402088868        5.1981541712        5.6016853917
 C        -8.1587029869        6.5140981476        5.1453261266
 C        -8.2994102002        6.6937142035        3.6701488108
 O        -7.9215804013        5.8818839371        2.8374777522
 C        -8.8434105368        8.0382244047        3.1298081254
 C       -10.3579066115        8.0851717576        3.6223329163
 O       -10.6389934502        8.3090872066        4.7828333116
 C       -11.4654030425        8.0190572926        2.5696338480
 C       -11.5969997294        6.6169315865        2.0985912581
 C       -12.0319538495        6.4940898151        0.6495816006
 O       -11.7800064662        7.3843510295       -0.1354428802
 C       -13.0430397334        5.3074301613        0.0642352532
 C       -12.3507038140        4.6720270356       -1.1628428182
 O       -11.9795089434        3.5312638967       -1.1745501337
 C       -12.0720139538        5.6314528733       -2.3787408722
 C       -13.0281860228        5.4257600238       -3.5509965157
 C       -12.7746472327        4.1911216530       -4.3408461606
 O       -11.6338322489        3.6781066846       -4.3091023032
 C       -13.8721746352        3.4834944984       -5.1790462560
 C       -14.1415146110        2.1279231268       -4.3105824913
 O       -13.2603628472        1.3430900836       -4.0061284720
 C       -15.6590679310        1.9208021157       -4.0393442956
 C       -15.1214571467        4.3230356212       -5.5281100494
 C       -13.2566472729        2.8087501378       -6.4869038826
 C       -13.3507488152        4.1620366993        1.1200513219
 C       -14.3626275124        6.1465163027       -0.1249251247
 C        -8.1346184588        9.2935714002        3.7004974992
 C        -8.7707479693        8.0799926405        1.5951751441
 C        -8.5905771407        1.3512050066        5.6167588990
 C        -6.4805910348        2.4604123751        6.6163731295
 C        -6.0945425525        3.5563336281       -0.9060972291
 C        -8.5556387595        4.3253259646       -0.8081709706
 C        -8.6218317743       -2.4699933326       -2.3495480157
 C       -10.9892204837       -1.9332513726       -2.6490794825
 H       -10.1054304764       -0.8151125192        1.1604705074
 H        -8.4999755574       -1.3688025425        0.6143950210
 H        -9.9969168998       -2.3982510727        0.2676291271
 H        -7.9003955387        0.7079667114       -4.6161829923
 H        -7.0107169485       -0.5534610101       -3.8388902500
 H        -6.2024963518        1.6154028477       -3.0551861349
 H        -6.8052272716        0.5882344693       -1.8080487006
 H        -6.7683838117        3.5904861895        1.6768738469
 H        -5.8973642784        2.0475578425        1.6047419941
 H        -7.9586442759        1.0674006475        2.6410618255
 H        -8.5793108865        2.6180289730        3.0418770818
 H        -6.4325173902        5.1207129086        5.1512709266
 H        -7.3477003971        5.2160299914        6.6769826519
 H        -7.7868602535        7.4545707535        5.4785436909
 H        -9.1682047152        6.5816397867        5.5209727853
 H       -11.2439847262        8.6247795335        1.6935498874
 H       -12.3595589774        8.5485616776        2.9195603673
 H       -12.2701958683        6.1016092131        2.8058105343
 H       -10.6385760744        6.0652275978        2.2150566680
 H       -11.0238660676        5.5525486576       -2.7448576364
 H       -12.2457404690        6.5970732450       -2.0810954592
 H       -13.0229350161        6.3391541722       -4.2314214604
 H       -14.0354738016        5.3658193560       -3.0875893189
 H       -15.8858528095        1.0881926384       -3.4021273960
 H       -16.0959998733        1.6835261503       -5.0086233644
 H       -16.2076242446        2.7731955024       -3.6701706101
 H       -15.5682360416        4.9109428116       -4.7416882054
 H       -15.8110107515        3.5794398944       -5.8446576068
 H       -14.9010373889        4.8821248110       -6.4626758337
 H       -13.0160103472        3.6047004158       -7.1780929166
 H       -14.0464373998        2.1189995673       -6.8451684596
 H       -12.4209267383        2.2550469542       -6.1189761867
 H       -12.4404128749        3.6798441817        1.5493681720
 H       -13.9834171041        3.4307617557        0.7136651887
 H       -13.9710552630        4.6508243512        1.8802869347
 H       -14.1729971955        7.2244557230       -0.2969575146
 H       -14.9079342765        6.1462793753        0.7987860689
 H       -14.9404212010        5.6859706950       -0.9422867525
 H        -8.5009321232       10.1688226317        3.1699269553
 H        -7.0914867722        9.2739167932        3.6045057167
 H        -8.3305675740        9.4190810700        4.7669573541
 H        -9.2687636426        7.1888506830        1.1416980594
 H        -7.7472359507        7.8979600451        1.2425640479
 H        -9.2104677910        8.9855067747        1.1432161439
 H        -8.2592460673        0.4161706677        5.0828062558
 H        -9.5763006342        1.6907603690        5.1735505065
 H        -8.7433681337        0.9633698685        6.6495514648
 H        -7.1477258372        2.5941969272        7.4943476966
 H        -5.6886356793        3.2088040961        6.6744765836
 H        -5.9384616572        1.4907405897        6.7122643689
 H        -5.8096003704        4.1818418519       -1.7396264609
 H        -5.5404157930        2.6501766228       -1.0928544823
 H        -5.8111356409        4.1254115122       -0.0528907302
 H        -8.5059614159        4.7616496563        0.2440130459
 H        -9.6182529600        4.0884649579       -0.9825330104
 H        -8.1774118837        5.0950534095       -1.5193008250
 H        -7.6221466932       -2.1244038618       -2.2708290749
 H        -8.6461488573       -2.8796464038       -3.3194431509
 H        -8.9757135330       -3.2286404151       -1.6212632782
 H       -11.7918013615       -1.1600472078       -2.8617719656
 H       -11.3930584993       -2.5763527592       -1.7634545277
 H       -10.8018185908       -2.6809544803       -3.4225253312
 Na      -11.0246068118        2.0237306657       -2.7481337605
