117

 C       -10.6929139794       -2.3423345814       -0.5177090104
 C       -10.4666196995       -1.1094707174       -1.3157474768
 O       -11.0111988738       -0.0513285357       -1.0767664013
 C        -9.6461772132       -1.2771569557       -2.6296009991
 C        -9.5806682843        0.1471456118       -3.3725839720
 O       -10.6075281357        0.6824630016       -3.7352794914
 C        -8.2513312655        0.7785614254       -3.7218341383
 C        -7.2876903377        1.1149395718       -2.5951376390
 C        -7.7697610513        2.3682949172       -1.8225229753
 O        -8.9504218944        2.7197664359       -1.8723299491
 C        -6.7981267943        3.1219315875       -0.8848000270
 C        -6.7691218894        2.1375877272        0.4807650420
 O        -6.8475705217        0.9478045547        0.3472401038
 C        -6.5941975140        2.9036959650        1.7945346136
 C        -7.0274011292        2.1547326905        3.0627738789
 C        -6.4495592984        2.8394740405        4.3682949965
 O        -5.3775166349        3.4262588525        4.4426223035
 C        -7.4239893817        3.0268261512        5.7149209925
 C        -8.3709235563        4.1667763586        5.3539200041
 O        -9.5384990893        4.0105706756        5.0763329652
 C        -7.7819461854        5.5879337734        5.2961949187
 C        -8.6504726434        6.5857799841        4.6650580610
 C        -8.2454952220        6.9522552448        3.2301766607
 O        -7.8447819745        6.0820156078        2.5036307306
 C        -8.5788253386        8.3510001839        2.7126874250
 C       -10.1712502068        8.6380057171        2.9410334012
 O       -10.6495789336        8.8020344941        4.0258654168
 C       -11.0798141553        8.5582633982        1.6798226975
 C       -11.8041806400        7.1564265045        1.7103534195
 C       -11.8904053197        6.5197223284        0.3284148390
 O       -11.0225106024        6.7980096630       -0.4612397615
 C       -13.0485814730        5.4984441903        0.0894373023
 C       -12.7561527831        4.7756154658       -1.2327611259
 O       -12.1002357579        3.7247311200       -1.0906384840
 C       -13.1702343384        5.4361228784       -2.5691928943
 C       -14.1420930490        4.6266470966       -3.4989957547
 C       -13.3383582955        3.5231979208       -4.2917242267
 O       -12.1428135366        3.5709669722       -4.4029425763
 C       -14.2270659184        2.3758634488       -4.9166642879
 C       -14.7101018845        1.5470229446       -3.6922772025
 O       -14.1602751777        1.8285713957       -2.6315503999
 C       -15.7794140071        0.4174178372       -3.7701230968
 C       -15.3195909785        2.9905080137       -5.8181480301
 C       -13.3358238252        1.3938694861       -5.6814480619
 C       -13.1391859258        4.4620107907        1.2781363568
 C       -14.4706541962        6.2707803303        0.0683142043
 C        -7.7526033444        9.2675911661        3.5427292246
 C        -8.1585819343        8.5643981487        1.2575490139
 C        -8.1787155708        1.7130156710        5.9146391852
 C        -6.5590676393        3.4315036713        6.9888247881
 C        -5.3295353921        3.1431162633       -1.4341216387
 C        -7.2468039456        4.5518585066       -0.6615554482
 C        -8.2430980882       -1.8049705886       -2.3004093670
 C       -10.3138098659       -2.3192904562       -3.5956218243
 H       -11.3526564751       -2.1865652176        0.3134659251
 H        -9.7821567475       -2.7431250957       -0.2141754161
 H       -11.1446943346       -3.0723284115       -1.1871172034
 H        -8.5901044172        1.6913335156       -4.2378193828
 H        -7.7639104872        0.0998140213       -4.4492770277
 H        -6.3209214747        1.4233508629       -3.0459443586
 H        -7.1459439134        0.3430676663       -1.8297163899
 H        -7.1198374737        3.8180952306        1.6898912595
 H        -5.5490485669        3.1995361927        1.8522545140
 H        -6.6812913887        1.1331052567        3.1019526901
 H        -8.1845350857        2.0824379355        3.1093526343
 H        -6.7840637754        5.5500030099        4.8068830131
 H        -7.5993920842        5.9082023540        6.3349897072
 H        -8.6711053306        7.5046140817        5.1882099544
 H        -9.7434306262        6.1492689918        4.5651812533
 H       -10.5596097939        8.6603629546        0.7484121198
 H       -11.9617886853        9.2439483454        1.7710780608
 H       -12.7783895887        7.2898195135        2.1908825245
 H       -11.2096123641        6.4989393469        2.3831662132
 H       -12.2385231709        5.5849923140       -3.1494540764
 H       -13.5762821978        6.4692809473       -2.3959394821
 H       -14.5898562182        5.3607801490       -4.1559004452
 H       -14.9603723878        4.2560162200       -2.9112743237
 H       -15.7036913076       -0.3530814483       -3.0121604541
 H       -15.7657474595       -0.1303299714       -4.7299335638
 H       -16.8061994807        0.8278376390       -3.7302010513
 H       -16.1633065545        3.5856444770       -5.4606965866
 H       -15.6886759707        2.1556790373       -6.4212258584
 H       -14.7685334365        3.5491948157       -6.5997234437
 H       -12.6017406369        1.8483607386       -6.3851318618
 H       -14.0177887331        0.6849346132       -6.1890300852
 H       -12.8154993418        0.8525330307       -4.8580047078
 H       -12.1616944593        4.0743700811        1.5297938700
 H       -13.6594949815        3.4882319296        0.9986194060
 H       -13.6080131942        4.8662470466        2.1973893475
 H       -14.6594331848        6.8790497706       -0.7948526566
 H       -14.4648994998        6.9256684182        0.9210152691
 H       -15.3712866316        5.5754864053        0.0701163019
 H        -7.9640139492       10.2872812215        3.3200333481
 H        -6.6743798377        8.9555544510        3.4822936667
 H        -7.9863890061        9.1242057440        4.5530216357
 H        -8.5841740080        7.8383802318        0.6035658605
 H        -7.0938111430        8.4274281086        1.1731099421
 H        -8.3853401135        9.6025707678        1.0911180878
 H        -7.8003687615        0.8560289914        5.3084988877
 H        -9.2096217424        2.0473464889        5.7001978047
 H        -8.1497166771        1.3520418918        6.9299258848
 H        -5.6551279640        2.7608640180        7.0064840432
 H        -7.0836906097        3.1657813154        7.8765729628
 H        -6.2603018263        4.4960376501        7.0975555558
 H        -5.2664022319        3.8976347078       -2.2547359834
 H        -4.9395647233        2.1703790209       -1.7010992238
 H        -4.7840508425        3.5981859237       -0.6314660666
 H        -6.7298334313        5.1716240640        0.0801775626
 H        -8.3455548553        4.5086477602       -0.4557847306
 H        -7.0935930388        5.2122675756       -1.5269966421
 H        -7.9717208527       -1.6385754376       -1.2562194029
 H        -7.4717272255       -1.4406818562       -2.9507626231
 H        -8.2724822835       -2.8851931162       -2.4500970417
 H       -11.3052938877       -2.0636671778       -3.9154435730
 H       -10.2519933811       -3.2421866330       -3.2157920504
 H        -9.7231268960       -2.3542232763       -4.4977082538
 Na      -11.2583498187        2.1511731706       -2.3937463811
