117

 C       -10.5818379653       -2.5900610802       -0.5578846241
 C       -10.4061948355       -1.3855582495       -1.5346176027
 O       -10.8625130113       -0.3100604750       -1.1228385954
 C        -9.7468407041       -1.5433575846       -2.8861101239
 C        -9.5197465071       -0.0435609969       -3.4932986979
 O       -10.4671071514        0.4702650563       -4.1191716273
 C        -8.1582128754        0.6065789421       -3.4801693103
 C        -7.5194908416        0.9450291234       -2.1150096753
 C        -8.1225740784        2.3334819881       -1.6068704516
 O        -9.2811258915        2.5822974808       -1.8574096070
 C        -7.2136408978        3.3084260739       -0.8499138022
 C        -7.0357208192        2.5811583239        0.6414508096
 O        -7.1972607896        1.3745976311        0.7565135554
 C        -6.4996012725        3.5168370734        1.7787358524
 C        -6.6647277062        2.7083440795        3.1187890309
 C        -6.2261258510        3.4883239742        4.3370951744
 O        -5.2174966229        4.1663848332        4.3478228483
 C        -7.1995229437        3.4081897199        5.5876231032
 C        -8.4361607792        4.4235171319        5.3944878346
 O        -9.3974576332        3.9406198343        4.7989495990
 C        -8.3421141356        5.9075346147        5.6253320864
 C        -9.1055001858        6.8227200395        4.7312208320
 C        -8.5797407061        6.9613503999        3.2137705476
 O        -8.4503006005        5.9639751742        2.5280331586
 C        -8.2977022479        8.3740168304        2.6593881597
 C        -9.6938671155        9.0843550396        2.2614602872
 O       -10.1285476983       10.0255948447        2.8941711329
 C       -10.5313720464        8.5186992345        1.0257078581
 C       -11.0855823437        7.0931990800        1.1725045649
 C       -12.0690414450        6.7593420730        0.0319612102
 O       -12.1040928070        7.4613167735       -0.9582737311
 C       -13.1434855908        5.6304344603        0.1406697191
 C       -12.9420617548        4.6757787826       -0.9893607812
 O       -12.7819131507        3.5057689574       -0.7854000966
 C       -13.0402426795        5.2614747178       -2.5121444981
 C       -13.9513379325        4.4108469550       -3.4185941040
 C       -13.3309881221        3.1514113719       -3.9819990155
 O       -12.1008750415        3.0779587916       -4.1554046680
 C       -14.1759202329        1.8396033792       -4.4897360754
 C       -14.1760069383        0.7492762664       -3.2787529488
 O       -13.0671446873        0.2926413326       -3.0017620847
 C       -15.4445526405        0.4205466323       -2.5716474563
 C       -15.5506582001        2.2592914292       -5.0216487430
 C       -13.3628785300        1.3072627918       -5.6404523899
 C       -12.9379265208        4.8457184668        1.5066575158
 C       -14.5376986422        6.3086122508        0.0835828222
 C        -7.5317064170        9.3077775482        3.5371887076
 C        -7.5305974698        8.1446838141        1.2910504387
 C        -7.8058602445        2.0085394823        5.7122886573
 C        -6.2825073344        3.7891159795        6.7804782631
 C        -5.7855398468        3.2503598554       -1.4810484161
 C        -7.8896093660        4.6680063391       -0.7295531328
 C        -8.4704252817       -2.2590410342       -2.5825333759
 C       -10.6569775691       -2.3500437258       -3.7989539489
 H       -11.3041267277       -3.3156803069       -0.9336116809
 H       -10.9082604316       -2.1933086241        0.3524703269
 H        -9.7743771512       -3.1298457232       -0.3494677564
 H        -8.2679408777        1.4387783175       -4.1633448388
 H        -7.4946299918       -0.0503367530       -4.0199905329
 H        -6.4368734983        1.0847659583       -2.1876415298
 H        -7.7686308765        0.1571011860       -1.3958144981
 H        -7.2207568244        4.3336569114        1.8161188270
 H        -5.5254714975        3.8683514589        1.5703073401
 H        -5.8996518343        1.8623458520        3.1574839376
 H        -7.6711137995        2.3234941783        3.1522403411
 H        -7.2789307190        6.1491426182        5.5220778611
 H        -8.5124914425        6.1490693802        6.7082891727
 H        -8.9929705525        7.9178710603        5.1367412837
 H       -10.1972203410        6.6298989980        4.6321925834
 H       -10.0302730873        8.5088660427       -0.0050217212
 H       -11.4281318559        9.1643227323        0.9290953105
 H       -11.5361968093        7.0499207336        2.1703890655
 H       -10.2462496466        6.3182430357        1.0608024380
 H       -12.0127324329        5.2463926288       -3.0052670157
 H       -13.4695188814        6.2651602148       -2.4934177827
 H       -14.3162163998        5.0853209828       -4.2034306352
 H       -14.8453980082        4.0813280557       -2.8461457548
 H       -15.1960112068        0.1196096549       -1.5118833578
 H       -16.0217200168       -0.4196162026       -2.9440452361
 H       -16.1022486257        1.1987727278       -2.4419929771
 H       -15.4774491096        2.9356816163       -5.8623880439
 H       -16.0772247063        2.8025281082       -4.2426247129
 H       -16.1665386358        1.4724223654       -5.4397076876
 H       -12.9241694525        2.1257342913       -6.2216004787
 H       -14.0165619571        0.7990971695       -6.3516498991
 H       -12.5830702323        0.6381602861       -5.3565448673
 H       -11.9212231211        4.4401945209        1.6472809767
 H       -13.5807420429        4.0357393959        1.5558484971
 H       -13.0670565913        5.4834714984        2.3817342813
 H       -14.5839179683        6.9572540724       -0.8273422355
 H       -14.5769591206        6.9474251529        0.9929515436
 H       -15.3388013435        5.6538675456        0.1772527082
 H        -7.1065059290       10.1175304432        2.9598611351
 H        -6.7037271724        8.8718448927        3.9663984822
 H        -8.2039526745        9.7415164109        4.3040524325
 H        -8.1814359379        7.4289793160        0.7619391918
 H        -6.4945875221        7.9121052982        1.5622483957
 H        -7.5241159828        9.0080600207        0.6061978978
 H        -7.3628759572        1.2455960308        5.0577004248
 H        -8.8438232457        2.0333526896        5.3469247767
 H        -7.7697410844        1.8365990824        6.8177551995
 H        -5.3724430964        3.2652082799        6.6779087396
 H        -6.8008550959        3.5975881918        7.7541412100
 H        -6.0229105409        4.8329385240        6.6583110844
 H        -5.9154728265        3.1094896473       -2.5110190640
 H        -5.2042971987        2.4550005994       -1.0086922820
 H        -5.2513513011        4.1966657027       -1.2919463127
 H        -7.2548068498        5.4930729705       -0.3251644950
 H        -8.8345912358        4.6949724449       -0.0772384618
 H        -8.1753324602        4.8646100442       -1.7694858442
 H        -8.2628149868       -2.2288773133       -1.5277498378
 H        -7.5233073107       -1.9804249104       -3.0492770366
 H        -8.6105793167       -3.3227391140       -2.7447451729
 H       -11.6336204907       -1.9216611101       -3.9859027179
 H       -10.9247844839       -3.3336810073       -3.3267200085
 H       -10.1077562139       -2.5054902093       -4.7631517129
 Na      -11.3236671573        1.8813321516       -2.1143974484
