117

 C       -10.7522387536       -2.6219278943       -0.6180767913
 C       -10.5619529025       -1.3395353059       -1.4648874568
 O       -10.8451689584       -0.2410606634       -1.0408456325
 C        -9.7181082797       -1.5364711753       -2.8129108174
 C        -9.4924704553       -0.1116182964       -3.5694919473
 O       -10.4454585218        0.3727717248       -4.1614094585
 C        -8.1865082644        0.7252648121       -3.6146401135
 C        -7.4845049447        1.0592302602       -2.3137163842
 C        -8.0659370254        2.3098662877       -1.6434716493
 O        -9.2145710108        2.7213906382       -1.7327261808
 C        -7.0694949573        3.2142390501       -0.8442194199
 C        -6.9489339820        2.6255272791        0.6239067057
 O        -7.1702568778        1.4252651937        0.7145406384
 C        -6.5758290882        3.3773718542        1.8575848395
 C        -6.6953627239        2.5209298417        3.1164580331
 C        -6.2534551809        3.4143720150        4.3554604767
 O        -5.3702812688        4.2253483561        4.3191694013
 C        -7.2004209574        3.3366600984        5.6597239007
 C        -8.3258130046        4.3821671805        5.2701045817
 O        -9.4158772610        3.9683048445        4.9349831719
 C        -8.1456746836        5.9143426864        5.5429099397
 C        -9.0851235630        6.7309518591        4.7052903739
 C        -8.5829822270        6.8916659297        3.2002146312
 O        -8.2347272842        5.8700335545        2.5936242244
 C        -8.3676424441        8.3510761320        2.5647861460
 C        -9.8054301420        8.9695726290        2.2631396003
 O       -10.1766477481        9.8958961039        2.9421994752
 C       -10.6549881001        8.5103963845        1.1746312130
 C       -11.1576030849        7.0608704599        1.2495872977
 C       -12.0420644179        6.8334654593        0.0374949113
 O       -11.8950643043        7.4422029842       -1.0112877183
 C       -13.1270816420        5.7002285819        0.1699241148
 C       -13.0325465964        4.6800930127       -1.0770750236
 O       -12.9419001242        3.4789763523       -0.8584101341
 C       -12.9505774062        5.1801332576       -2.5026573527
 C       -13.9394632566        4.4490353423       -3.4312598193
 C       -13.2980308136        3.1694026150       -3.9348051294
 O       -12.1118337985        3.0817947485       -4.0274623644
 C       -14.1730170398        1.9940288310       -4.5159292121
 C       -14.2845262566        0.9319243595       -3.2781431115
 O       -13.2084589444        0.4620278158       -2.8769371501
 C       -15.5192698935        0.3322844124       -2.6965294615
 C       -15.5330578904        2.4402030899       -5.1160869062
 C       -13.3190555646        1.3756613914       -5.7121413728
 C       -12.9736386717        4.8161806286        1.4158150478
 C       -14.6076149251        6.2703084723        0.1808857782
 C        -7.6210735734        9.3869754606        3.5088348221
 C        -7.5289413611        8.1967793276        1.2511314365
 C        -7.8416925203        1.8936046712        5.8274908274
 C        -6.3865982275        3.7551067840        6.9107559368
 C        -5.6647658877        3.3522772860       -1.4981209866
 C        -7.6267650338        4.6179852945       -0.7543562542
 C        -8.3380669371       -2.2534216724       -2.5225081567
 C       -10.6507791627       -2.3103199457       -3.8044398238
 H       -11.0063407045       -3.4019867090       -1.2928198062
 H       -11.4528142258       -2.5352852062        0.2166096640
 H        -9.8112116211       -2.9565435919       -0.1656856375
 H        -8.4776735932        1.5290589357       -4.2498133903
 H        -7.4550253565        0.1846533982       -4.1847776953
 H        -6.4115080418        1.3354035262       -2.4607059861
 H        -7.6057613531        0.1959812015       -1.6573296297
 H        -7.2066098106        4.2567254363        1.9600268054
 H        -5.5266014810        3.6940877812        1.7183379059
 H        -5.9719531356        1.7748414701        3.0990069282
 H        -7.7324180783        2.0535119214        3.1554417990
 H        -7.1055309337        6.2062245103        5.5660472985
 H        -8.4483561876        6.0339657839        6.5884160491
 H        -9.3201060614        7.7092178468        5.0473139934
 H        -9.9866263679        6.1373685082        4.6168824967
 H       -10.0724017989        8.5377897498        0.2152209207
 H       -11.5826614502        9.1547844728        1.0362450859
 H       -11.7268998025        6.9777477380        2.1567855691
 H       -10.3071719047        6.3165335180        1.2041410138
 H       -11.9626268213        4.9596676389       -2.8933886885
 H       -13.2035938098        6.3203507201       -2.5065095787
 H       -13.9834822732        5.0997465124       -4.3372055016
 H       -14.9864405705        4.4067258580       -3.0342313081
 H       -15.2704051435       -0.1887164745       -1.8154974528
 H       -15.8873209968       -0.4279961780       -3.3228501564
 H       -16.4136982782        0.9687198783       -2.4040045133
 H       -15.5513363315        2.5565300515       -6.2026826546
 H       -16.0515535719        3.3249243918       -4.6944979522
 H       -16.1826090399        1.6219046418       -5.0505601807
 H       -12.9039530912        2.1437631642       -6.3692549331
 H       -13.8764616339        0.6683191735       -6.2842584702
 H       -12.4895975712        0.8347946200       -5.2319653801
 H       -11.9698628631        4.5545668865        1.6481178786
 H       -13.5474463431        3.8828949274        1.3172182145
 H       -13.3325531829        5.2913464805        2.2906212096
 H       -14.7177144199        6.7105207191       -0.7964818358
 H       -14.7873820911        7.0540813133        0.9377087997
 H       -15.3286540264        5.5074702125        0.4052417348
 H        -7.2757881811       10.2761831300        3.0017059044
 H        -6.6916401053        8.9439914982        3.8548269604
 H        -8.2605114606        9.6633945882        4.3762423524
 H        -7.9574876824        7.4239415345        0.6345043893
 H        -6.4898326134        8.1557502383        1.5795218566
 H        -7.6178030604        9.1166975122        0.6450709596
 H        -7.3750027249        1.1340532542        5.2044914012
 H        -8.7817862422        2.0419556523        5.3799112175
 H        -7.9607465020        1.6104787408        6.9167843700
 H        -5.4915061617        3.1966249609        6.9095635797
 H        -7.0529817829        3.4704751528        7.7463340735
 H        -6.1416819838        4.7938741731        6.9554798768
 H        -5.8517622814        3.2173064098       -2.5655917745
 H        -4.8730517678        2.6955927918       -1.1314480752
 H        -5.3739504258        4.4002084137       -1.3266996567
 H        -6.9492441180        5.2816419069       -0.2560182404
 H        -8.4962569186        4.7106172448       -0.2019386227
 H        -7.8285149643        4.9262959157       -1.7972529873
 H        -7.9208891631       -2.1734373961       -1.4953462539
 H        -7.4895848600       -1.8351435643       -3.1668818201
 H        -8.3859098880       -3.2843882703       -2.7213598378
 H       -11.6570558573       -1.8536095160       -3.9639776820
 H       -10.9791934109       -3.3677295085       -3.3627484031
 H       -10.1089846267       -2.4213179088       -4.7714850791
 Na      -11.3463525420        1.8694912471       -2.1370572878
