117

 C       -10.5052352533       -2.5273756560       -0.5557179835
 C       -10.4626619184       -1.2876663484       -1.4435437053
 O       -10.9438552920       -0.2388295357       -1.1092484797
 C        -9.7245587154       -1.5961998225       -2.8696233582
 C        -9.5264178830       -0.0971655201       -3.5110446640
 O       -10.4395018409        0.5128674575       -4.0048248545
 C        -8.0871149932        0.4344288744       -3.4063473602
 C        -7.7028859585        0.8396895949       -1.9613606017
 C        -8.1801682533        2.2433870657       -1.5971245703
 O        -9.2869264680        2.5958722645       -1.9129351693
 C        -7.3061232171        3.2278965872       -0.8228361460
 C        -7.0707211183        2.5985287153        0.5884595789
 O        -7.2077901332        1.4331479116        0.8047461509
 C        -6.5364889276        3.5505029048        1.6790335495
 C        -6.6733035362        2.8117594439        3.0430295046
 C        -6.2472138265        3.6311344005        4.2273919136
 O        -5.1426043560        4.1303400760        4.3982147183
 C        -7.2169302628        3.5115151645        5.5380745545
 C        -8.4464250412        4.4384074515        5.1896737595
 O        -9.4651683786        4.0057284418        4.7068335011
 C        -8.3047118373        5.9563923157        5.6690107762
 C        -9.0780172127        6.9479934162        4.7542531940
 C        -8.6229639340        7.0254452435        3.2742296741
 O        -8.6984314519        6.0447897221        2.5833678108
 C        -8.3326106893        8.4026089991        2.6117999257
 C        -9.6788121111        9.0719609090        2.2395701503
 O       -10.0275666335       10.0593056387        2.8340154235
 C       -10.4148767521        8.5874794135        0.9646724824
 C       -10.9953742391        7.1694726105        1.0886129016
 C       -12.0817222690        6.8402619607        0.0403620115
 O       -12.2391813426        7.5170155599       -0.9388145733
 C       -13.1194733529        5.6569204353        0.1954074183
 C       -12.9140981706        4.5913131490       -1.0168420110
 O       -12.5070713131        3.4398963087       -0.9178218113
 C       -13.1639599694        5.1660707549       -2.4318805231
 C       -14.0631251124        4.2752224453       -3.3391872350
 C       -13.3084941544        3.0477133671       -3.9692059086
 O       -12.0805581585        3.1186482697       -4.1506948634
 C       -14.1111496435        1.8538161262       -4.5023832836
 C       -14.0378863872        0.7650987793       -3.2795314725
 O       -13.0544568503        0.1453670750       -3.0618354168
 C       -15.2956220644        0.5458618000       -2.5236127463
 C       -15.6060594433        2.1430615266       -4.8167326882
 C       -13.3582407282        1.1183114006       -5.6672533027
 C       -12.9788676055        4.8797710766        1.5607032540
 C       -14.4585987018        6.3319426278        0.0824627413
 C        -7.4640669156        9.2394462102        3.5827953556
 C        -7.4712053141        8.1198965425        1.2850001493
 C        -7.6631215984        2.0309727910        5.7195489051
 C        -6.2675692433        3.8800336095        6.8036894365
 C        -5.8940275678        3.3124289339       -1.4206910266
 C        -8.0470875788        4.6145216936       -0.7166458592
 C        -8.3732214063       -2.3324812237       -2.7526005886
 C       -10.6598622422       -2.3539293647       -3.8384707699
 H       -11.3652716892       -3.1407733928       -0.6503155218
 H       -10.3847269489       -2.2636749568        0.4548844227
 H        -9.6205785008       -3.1893025050       -0.8063986971
 H        -8.0578576791        1.3093885497       -4.0898303149
 H        -7.3247354738       -0.2358548353       -3.8469876320
 H        -6.6353450119        0.8592701096       -1.8301662607
 H        -8.1210163314        0.2130841132       -1.1564053562
 H        -7.0860503577        4.4909145209        1.6962400019
 H        -5.4929171581        3.7015099502        1.4664032213
 H        -6.0133917230        1.8658176654        3.0513179667
 H        -7.6984901357        2.5556112967        3.1716972575
 H        -7.2870914465        6.2916591432        5.9719150481
 H        -8.8429264943        5.9044952996        6.6366564392
 H        -9.1397633390        8.0246058988        5.0901485505
 H       -10.1660900943        6.5806228611        4.6367040739
 H        -9.7588763146        8.5314678088        0.0955090552
 H       -11.1692706602        9.3126939776        0.7043313499
 H       -11.3992430452        7.1120837185        2.1479004794
 H       -10.2084144457        6.4285981370        0.9667209212
 H       -12.1614651945        5.1676523962       -2.9394611070
 H       -13.5535501924        6.1222458605       -2.3643312231
 H       -14.4608627162        4.9346134432       -4.1024545824
 H       -14.9102240366        3.8869294930       -2.7950152426
 H       -15.0539848791        0.2749053875       -1.4876253651
 H       -15.9216389119       -0.3105909548       -2.8867819466
 H       -15.9836065784        1.3502388733       -2.3583474751
 H       -15.6848285307        3.0929002729       -5.3078790296
 H       -16.2214063044        2.2365204758       -3.9458694754
 H       -16.0914192935        1.4687259491       -5.5779485296
 H       -13.1075096248        1.8477097238       -6.4467812321
 H       -14.0748409655        0.4512921974       -6.1986741458
 H       -12.4683800534        0.5857702607       -5.3822663775
 H       -12.0749576581        4.2814209112        1.6690541460
 H       -13.7898405980        4.1553786222        1.5999250157
 H       -12.9350680343        5.5413393832        2.4566179830
 H       -14.4500236607        7.0374285709       -0.7482486432
 H       -14.6914785042        6.8141384453        1.0093886422
 H       -15.2624452219        5.5529279269       -0.0591649089
 H        -6.9116960212       10.0526832697        3.1467575486
 H        -6.6905094229        8.6081100010        4.0437149364
 H        -8.0818438404        9.6463029708        4.3130977865
 H        -8.0829285815        7.5314710216        0.5969337401
 H        -6.5476397288        7.7209963136        1.6838385113
 H        -7.2298943672        9.0059053738        0.7025843714
 H        -6.8831754574        1.3812461302        5.2669722860
 H        -8.6035853711        1.6921697247        5.1659508661
 H        -7.7243756927        1.9802391310        6.7655843356
 H        -5.4127455833        3.1481399079        6.7652427157
 H        -6.7970404684        3.8302160534        7.7165184366
 H        -5.7899322023        4.8578051384        6.6132946222
 H        -5.9513042108        3.5656594849       -2.4773439556
 H        -5.3632309287        2.4046102421       -1.1839211941
 H        -5.3665102211        4.0784793884       -0.9035221814
 H        -7.3406070737        5.3989485361       -0.3010592613
 H        -8.9657759205        4.6686874885       -0.0176334318
 H        -8.3312426502        4.8975942828       -1.7435457296
 H        -7.8050257145       -2.0639886818       -1.8939000465
 H        -7.7654031317       -2.3132056267       -3.5933168118
 H        -8.5930678380       -3.4205111822       -2.5620985542
 H       -11.5817077028       -1.8072992194       -4.0230485874
 H       -10.9501294971       -3.2212367544       -3.4247505320
 H       -10.1725103850       -2.5618332029       -4.7725684488
 Na      -11.4208939722        1.8208843269       -2.1573565709
