117

 C       -10.1504459434       -2.4277515194       -0.3519018732
 C       -10.2355481667       -1.3908335761       -1.4012623050
 O       -10.7865690117       -0.3362067952       -1.2327875114
 C        -9.7348852381       -1.8208826474       -2.8389870158
 C        -9.2048204298       -0.3908434404       -3.4749925710
 O        -9.9190840033        0.1827461565       -4.2647872380
 C        -7.8482366540        0.2628742370       -3.1212990487
 C        -7.6981149005        0.8712801986       -1.6585600726
 C        -8.1621791225        2.3269071114       -1.6166321812
 O        -9.1403542997        2.5538273870       -2.3375205898
 C        -7.4754808291        3.3995154640       -0.6993203006
 C        -7.1690428330        2.7046659350        0.6876913495
 O        -7.1985611374        1.5053275075        0.7835614981
 C        -6.7510599500        3.6945246250        1.8712640500
 C        -6.9043971607        3.1134516394        3.2656186308
 C        -6.2380496478        3.9839203164        4.2690648365
 O        -5.3031526475        4.6700534472        3.9266947146
 C        -6.9657837062        3.9677609410        5.6658195202
 C        -8.3343983114        4.7690887628        5.4132548742
 O        -9.3629745490        4.2288131913        5.1411300360
 C        -8.4614722310        6.3973830069        5.5440405772
 C        -9.3104139297        7.0235385551        4.4877387578
 C        -8.6914253132        6.9753692071        3.0289048581
 O        -8.8378686488        5.9568122827        2.3695763114
 C        -8.1862071509        8.2873754698        2.4701685307
 C        -9.5234343504        8.9805955576        1.7922309326
 O        -9.9931636586        9.9168513592        2.3870130951
 C       -10.1930438015        8.4707571450        0.5190289245
 C       -11.2283914832        7.3912841507        0.9311777379
 C       -12.1477368127        6.8196472908       -0.1646932139
 O       -12.4279233395        7.4815132404       -1.1416247013
 C       -12.8821579084        5.5258013959        0.0565972800
 C       -12.7210581566        4.5919048167       -1.3046064189
 O       -12.0554380232        3.5943718449       -1.2108012596
 C       -13.3397861412        5.0487622450       -2.6593291380
 C       -14.3430642617        4.1034667144       -3.2560738566
 C       -13.6371032955        2.7955859339       -3.7450984692
 O       -12.4274417765        2.8501146658       -3.9781421744
 C       -14.4550748434        1.5227155179       -4.1584399508
 C       -14.2980149439        0.6118379131       -2.8363847463
 O       -13.2984020162        0.0165547669       -2.6222462238
 C       -15.4163560920        0.5391158967       -1.8100019509
 C       -15.9982361018        2.0304420390       -4.5578416243
 C       -13.7059803539        0.8569551920       -5.3246182894
 C       -12.1585788477        4.7436359409        1.2461072724
 C       -14.3255068546        5.8134772301        0.3970690018
 C        -7.5984070798        9.2404855307        3.5169368279
 C        -7.1880114913        7.9998777913        1.3530572829
 C        -7.2835536377        2.5496185998        6.1661798413
 C        -5.9662409735        4.7448869003        6.7836858703
 C        -6.0836138070        3.7796668895       -1.3314803586
 C        -8.4214840965        4.6011349882       -0.5057914627
 C        -8.5771814653       -2.8912245303       -3.0187495444
 C       -10.9989819540       -2.2469123481       -3.6288664926
 H        -9.6514090667       -2.0119512100        0.4752106420
 H        -9.4779277889       -3.2542221160       -0.6473877581
 H       -11.1939815551       -2.8615895854       -0.0071547974
 H        -7.8423684688        1.1063773574       -3.8179479038
 H        -7.0553164949       -0.4407067824       -3.3354543103
 H        -6.6527447590        0.8618282022       -1.3334492703
 H        -8.1252284942        0.2408429188       -0.8409887320
 H        -7.4815576842        4.5517702923        1.8809438015
 H        -5.7264661361        4.0906963349        1.7209729749
 H        -6.4153488709        2.0809646692        3.3405122343
 H        -7.8882476948        2.9508719595        3.5112758354
 H        -7.5700254897        6.9777354644        5.5104625293
 H        -8.9721455401        6.5729815995        6.5069323939
 H        -9.6767357505        7.9506155167        4.8371501003
 H       -10.2038140332        6.4780076826        4.3761466216
 H        -9.4418902690        8.0569199298       -0.1869894730
 H       -10.6346970658        9.3296197734        0.0174015094
 H       -11.8635326209        7.7541858988        1.7008530815
 H       -10.7282131984        6.6476977368        1.5161882808
 H       -12.4884332569        5.2976425736       -3.3922359872
 H       -13.7564999143        5.9983042438       -2.4902311868
 H       -14.7916802475        4.5362938385       -4.1621039274
 H       -15.1975286625        3.9244446675       -2.5806461632
 H       -16.3992858538        0.8253984286       -2.1321519422
 H       -15.1307679168        1.3289518963       -1.0811315707
 H       -15.5849564514       -0.3478849052       -1.2251291624
 H       -15.9045780007        2.8141875877       -5.2978505672
 H       -16.4727734574        2.4543683441       -3.6819102456
 H       -16.6524273272        1.1319763084       -4.8579178801
 H       -13.2884553110        1.6974813265       -5.9222019232
 H       -14.2569452875        0.2012689159       -6.0493611459
 H       -12.7952265691        0.3413986436       -5.0500945768
 H       -11.2163573121        4.2558753511        0.9228506950
 H       -12.8556106008        3.9665342107        1.5567589111
 H       -11.9593879166        5.3327137032        2.2006719303
 H       -14.7706957736        6.5211557346       -0.3200111128
 H       -14.3532650863        6.2154211269        1.3909029314
 H       -14.8919662072        4.8759092114        0.2991498346
 H        -7.0265815376       10.0120276203        2.9399575848
 H        -6.9169235377        8.7255524260        4.2428423117
 H        -8.3244674776        9.7026381484        4.1482518650
 H        -7.5262502391        7.2663135362        0.6372746659
 H        -6.3091832105        7.5390050103        1.7220686084
 H        -6.9268722859        8.9390931826        0.9463854220
 H        -6.4702876759        1.8553369395        5.8877114054
 H        -8.3153479044        2.2173369298        5.8666577118
 H        -7.3067520510        2.5975954993        7.2066504397
 H        -4.9939933025        4.2335506554        6.8768850800
 H        -6.4313015423        4.6969190188        7.7357225316
 H        -5.8823439029        5.7749108371        6.4351813482
 H        -6.2268955736        3.8965960788       -2.4145291535
 H        -5.3047627241        2.9881548702       -1.2544341242
 H        -5.7262542275        4.7456799473       -0.9380283149
 H        -7.9056058276        5.4035924065       -0.0519247557
 H        -9.3497588224        4.2869907227       -0.0328409724
 H        -8.6859896485        4.9751486447       -1.4400877132
 H        -7.6761078189       -2.4676705074       -2.5893141950
 H        -8.3749082314       -3.2323876399       -4.0032717214
 H        -8.8382305968       -3.8516615097       -2.4548139205
 H       -11.7288585550       -1.3944930915       -3.6246667254
 H       -11.4081173541       -3.1600162846       -3.2064514566
 H       -10.8275317884       -2.4843241058       -4.7077363218
 Na      -11.2674262146        1.3863465969       -2.7103092389
