117

 C       -10.1459586159       -2.4247425629       -0.3429126706
 C       -10.1707699286       -1.3607074569       -1.4117738228
 O       -10.7702330501       -0.2952712940       -1.1728301673
 C        -9.6244300612       -1.7320112637       -2.8396505416
 C        -9.1454311984       -0.3550160324       -3.4831770895
 O        -9.9898918062        0.1693545407       -4.1741846089
 C        -7.7519436984        0.2044198665       -3.1992215059
 C        -7.5884409647        0.7843520911       -1.7480267463
 C        -8.1596055544        2.2605088314       -1.6598223031
 O        -9.0802018040        2.5930623055       -2.4168294624
 C        -7.5821115196        3.2863333000       -0.6671025466
 C        -7.2963534496        2.6690810488        0.7748723288
 O        -7.0996828024        1.4597651996        0.9757555829
 C        -6.8762715803        3.6526495529        1.8392188109
 C        -6.9721409179        3.1041605247        3.2167844865
 C        -6.2614707699        4.1314766717        4.2581821622
 O        -5.2716659261        4.7785984009        4.0088687074
 C        -6.9404283491        4.1452854280        5.6429048196
 C        -8.3657348336        4.8389718405        5.5363208422
 O        -9.3325618749        4.1356175210        5.3610983460
 C        -8.4240684347        6.3400712861        5.5313585150
 C        -9.3492074958        6.9871183082        4.4766330132
 C        -8.7491322687        7.0286938309        3.0321858834
 O        -8.6858233387        6.0192381159        2.3333271645
 C        -8.1892577859        8.3845050035        2.3642537566
 C        -9.5019582114        9.0310530085        1.7550320718
 O       -10.0000152665        9.9495518061        2.3686494670
 C       -10.2190111856        8.3834121507        0.5596261322
 C       -11.2597753875        7.3685102157        0.9034724629
 C       -12.1619543339        6.8628389894       -0.2448840004
 O       -12.3673202052        7.4229139644       -1.2867355201
 C       -12.8529566276        5.3574212202       -0.0312267135
 C       -12.7524382659        4.5816058586       -1.3175035166
 O       -12.2224456399        3.4436594559       -1.3708387435
 C       -13.3285701543        5.1210072956       -2.6838459122
 C       -14.3013239770        4.1470232069       -3.3284279244
 C       -13.6467000631        2.8175819757       -3.7967391905
 O       -12.4362126158        2.7577076708       -3.9563988195
 C       -14.5153868420        1.6335879001       -4.0548130181
 C       -14.4036256271        0.7016319529       -2.7236629989
 O       -13.3483225394        0.2033515908       -2.5237275697
 C       -15.5487717889        0.4385818466       -1.7636670297
 C       -15.9034315060        2.0284600802       -4.4134820082
 C       -13.9298929103        0.7717823759       -5.1903397292
 C       -12.1276971262        4.6069919151        1.1384174395
 C       -14.3204596940        5.6598182046        0.5048865735
 C        -7.5697939430        9.3813831334        3.3901885758
 C        -7.1182291873        7.9677826132        1.2997475756
 C        -7.0651126635        2.6371524776        6.0507427264
 C        -6.1081181096        4.9213696376        6.6791205459
 C        -6.1769708191        3.6631778706       -1.1927579837
 C        -8.4265655406        4.5680163988       -0.5464694369
 C        -8.5945910014       -2.8368316227       -3.0341291581
 C       -10.8765600956       -2.2354660896       -3.5528939615
 H        -9.5016486476       -2.1140534633        0.4710040450
 H        -9.7123593585       -3.3430926746       -0.6691087983
 H       -11.0955777155       -2.5973410046        0.0076508692
 H        -7.6289433130        1.0308587456       -3.8639330171
 H        -7.0700046353       -0.5868218387       -3.4086422180
 H        -6.5349485231        0.7757694454       -1.4296592213
 H        -8.0139821809        0.1982907300       -0.9151808395
 H        -7.4065318267        4.5948728678        1.7542300894
 H        -5.8227028538        3.8236467363        1.6633949439
 H        -6.5243111602        2.0837798768        3.1818754106
 H        -8.0083428081        2.9294909920        3.5484740541
 H        -7.4448944431        6.7799854996        5.3647210813
 H        -8.8094887220        6.6070047555        6.4956986272
 H        -9.6664485383        7.9585800543        4.8173930569
 H       -10.3471094550        6.4149682054        4.4679675198
 H        -9.4573063311        7.9583121022       -0.1319684696
 H       -10.7662344173        9.1986231880       -0.0131415875
 H       -11.9013710976        7.6668466338        1.7884697161
 H       -10.8303037416        6.5242977487        1.4015411332
 H       -12.4458210520        5.3142453197       -3.3569122403
 H       -13.7433421730        6.1546109407       -2.5818192095
 H       -14.8590627237        4.6139060857       -4.1711202245
 H       -15.1036447822        3.8515817330       -2.6029469371
 H       -16.4712369581        0.7928451593       -2.0664501418
 H       -15.4033935074        0.8132447208       -0.7738108940
 H       -15.7122646140       -0.6760328799       -1.6159953732
 H       -15.7262852967        2.7148593056       -5.2494826342
 H       -16.4431404588        2.5987408402       -3.6393731223
 H       -16.4846599026        1.1539815653       -4.7173481141
 H       -13.4539355910        1.4376014605       -5.8989477383
 H       -14.6096926705        0.1412678542       -5.7595272643
 H       -13.0581247090        0.1747767926       -4.8580356701
 H       -11.0887931888        4.4606254262        1.0456201723
 H       -12.6464917288        3.6177730507        1.2293404516
 H       -12.3690022641        5.0899646478        2.0700130145
 H       -14.7152906475        6.4050194848       -0.1373085831
 H       -14.2624193285        6.0589526238        1.4851328769
 H       -15.0199421771        4.7584937649        0.4317093264
 H        -6.9801865495       10.1375151540        2.8617867808
 H        -6.9746307937        8.9222132287        4.2499919697
 H        -8.3863613956        9.8466398342        3.9191233562
 H        -7.3057556762        7.1064572565        0.7178247455
 H        -6.1834365034        7.7212161044        1.7609784098
 H        -6.9159747046        8.8749692199        0.7534502977
 H        -6.1844931336        2.1171064352        5.6478585663
 H        -8.0058629690        2.3229606303        5.6314201309
 H        -7.0741371910        2.3730227329        7.1010766353
 H        -5.2405692637        4.2635728336        6.8887998967
 H        -6.6799159929        4.9824641460        7.5609748187
 H        -5.8087880463        5.8978620484        6.3218410850
 H        -6.0947656776        4.0618175722       -2.2538500168
 H        -5.4474572604        2.8431632692       -1.1693519960
 H        -5.9038635839        4.4451853491       -0.5024251962
 H        -8.0114977412        5.2695659961        0.1204941311
 H        -9.3858562686        4.3124052343       -0.3313838466
 H        -8.4719225078        5.0545422265       -1.5255650896
 H        -7.5629980576       -2.5756967084       -2.6933720915
 H        -8.5213972401       -3.2543704760       -4.0482498507
 H        -8.9761901658       -3.6656180358       -2.4195168960
 H       -11.7392989511       -1.5435937215       -3.4310369020
 H       -11.1020786149       -3.3197112288       -3.1031108478
 H       -10.7648816220       -2.4232859081       -4.6492779894
 Na      -11.2168550964        1.4078115222       -2.7723760762
