117

 C        -9.9660905269       -2.3813003183       -0.3369729807
 C       -10.0266488117       -1.2494552417       -1.2987579919
 O       -10.4374735807       -0.1386390119       -0.9955454412
 C        -9.5579169553       -1.6388670445       -2.7916069852
 C        -9.0989149718       -0.3743691759       -3.4939119550
 O        -9.8748616638        0.1517473236       -4.2691451559
 C        -7.6078465813        0.1146278082       -3.3946947716
 C        -7.3624263192        0.6846948978       -1.9324891084
 C        -8.0366906974        2.0472453287       -1.6725567489
 O        -9.1070410263        2.2179582355       -2.3220478124
 C        -7.4164014020        3.1068009928       -0.7715174334
 C        -7.2397492245        2.5918595451        0.7064694529
 O        -7.5210666809        1.4194762905        0.9770416837
 C        -6.7098709345        3.5936835275        1.7455366764
 C        -6.9741197751        3.1779280763        3.2348770602
 C        -6.2785190644        4.2069180319        4.2643460426
 O        -5.5597903864        5.0828206630        3.8790457722
 C        -6.8047962734        4.3036111197        5.7421943733
 C        -8.2929934716        4.9803434775        5.5822277637
 O        -9.2458785129        4.2579138465        5.7111627946
 C        -8.3403244543        6.5755619503        5.4805130243
 C        -9.2896050419        7.0825313591        4.4523717389
 C        -8.6702463392        7.1008646550        2.9365330580
 O        -8.6859932241        6.0366362554        2.3381005481
 C        -8.3418094020        8.4093979059        2.2423044638
 C        -9.6585789889        8.9772426234        1.6595974298
 O       -10.1725298367        9.9739121904        2.1380272112
 C       -10.2174933123        8.1918272119        0.4848047405
 C       -11.2941785341        7.2405650957        0.9963370985
 C       -11.9745235553        6.5673425971       -0.1916161026
 O       -12.0011244586        7.1171449827       -1.2636479012
 C       -12.6251059078        5.1493652869       -0.0503977114
 C       -12.7798536504        4.3499705253       -1.4552817823
 O       -12.5024581906        3.1480416492       -1.5057246374
 C       -13.2801254287        5.1011600823       -2.7859142692
 C       -14.3879885883        4.3139734181       -3.5568693267
 C       -13.8095441392        2.9204823104       -3.9464094879
 O       -12.6687813016        2.7844716390       -4.3978358188
 C       -14.7366689963        1.6547458194       -3.8510068860
 C       -14.5210961832        0.9143423976       -2.4395625526
 O       -13.4482584018        0.7672517379       -1.9445495467
 C       -15.8024218362        0.2255344512       -1.9625557249
 C       -16.1855707536        2.0506401968       -4.1189337873
 C       -14.2331970653        0.6791689096       -4.9572666851
 C       -12.0080631573        4.3449118695        1.0830279160
 C       -14.1749331344        5.4306350274        0.2578011057
 C        -7.7378770035        9.4266907818        3.3245260048
 C        -7.2894026629        8.1957506872        1.1365577681
 C        -6.9914126991        2.9576649153        6.4768144273
 C        -5.9394452347        5.2032696257        6.6154256447
 C        -6.0796428654        3.5401351111       -1.3795785700
 C        -8.4101557264        4.3086629894       -0.6766827616
 C        -8.5037458913       -2.7053570576       -2.6655377718
 C       -10.7665733046       -2.2397332265       -3.5774272809
 H        -8.8824441939       -2.5797886559       -0.1235148229
 H       -10.3215885290       -3.3617876101       -0.8536161434
 H       -10.5137482214       -2.2562578328        0.6162124550
 H        -7.3810933841        0.9140975026       -4.1388195312
 H        -6.9272390970       -0.7538234488       -3.5431771110
 H        -6.2747491999        0.8418183586       -1.8396935830
 H        -7.5640232185       -0.0736563847       -1.1276943235
 H        -7.1662828288        4.6128328311        1.5798094391
 H        -5.6120478762        3.7343336127        1.5768603578
 H        -6.5046405132        2.1770754220        3.4444544494
 H        -7.9491949632        3.0727449297        3.5179574068
 H        -7.3673277345        6.9458274136        5.2091853484
 H        -8.6863326911        6.9379052031        6.4783636650
 H        -9.6998802808        8.0007022171        4.7678129857
 H       -10.0832531766        6.3573074015        4.4969316509
 H        -9.4334758380        7.6526232960        0.0062734715
 H       -10.7552420733        8.7850603709       -0.2292772619
 H       -12.0711110360        7.6164122245        1.6013374630
 H       -10.9261902326        6.5607184235        1.7101503270
 H       -12.3697738432        5.2622946505       -3.4139919651
 H       -13.4999394509        6.0886770494       -2.5507103519
 H       -14.6440950368        4.8691146958       -4.4437794187
 H       -15.3024270205        4.1475242219       -3.0097956215
 H       -16.3674093080        0.8911166259       -1.4131199729
 H       -15.5451585227       -0.4991947962       -1.1540066731
 H       -16.5385467026       -0.3132185541       -2.6264202253
 H       -16.3471047671        2.6118805122       -5.0337909046
 H       -16.4974218215        2.5750346044       -3.2420116622
 H       -16.6691773564        1.0495088913       -4.2432482137
 H       -14.7588043370        0.8148578593       -5.8952756598
 H       -14.4143727469       -0.3812964622       -4.7146181550
 H       -13.1819831627        0.7393940439       -5.2150793957
 H       -10.9450455626        4.3014224661        0.8756568201
 H       -12.4391359852        3.3212146814        1.1713274931
 H       -12.2428288072        4.8709298892        2.0425247921
 H       -14.5792518615        5.9629679195       -0.5900222416
 H       -14.2055299346        6.1218544662        1.0718445601
 H       -14.7709740124        4.5271810715        0.5879857157
 H        -7.5148232218       10.3814048992        2.8835806668
 H        -6.7826347901        9.0284129187        3.7490937837
 H        -8.3910057071        9.5174963984        4.1144889704
 H        -7.5362101913        7.3012655634        0.5118879782
 H        -6.3231051369        7.9400105503        1.5876616216
 H        -7.0921324592        9.1099396422        0.5534472383
 H        -6.0324907556        2.6843802995        6.9182101300
 H        -7.5438545175        2.1180469612        5.9766962700
 H        -7.4821360800        3.0791934603        7.3942524026
 H        -5.1239769338        4.5451968596        7.0502984803
 H        -6.5170184109        5.6977801630        7.3546355587
 H        -5.4182666615        5.9347727712        5.9605622152
 H        -6.1990339919        3.6653444281       -2.4554220302
 H        -5.3426401886        2.7633380292       -1.3364919802
 H        -5.7123588759        4.4471505761       -0.9706321638
 H        -7.9338406085        5.0357764539        0.0279232372
 H        -9.3599950948        4.0069273737       -0.2179948151
 H        -8.6714208563        4.7593541258       -1.6786187086
 H        -7.9094323450       -2.6009340302       -1.7713002331
 H        -7.8676750169       -2.6109366301       -3.4848004261
 H        -8.9430789201       -3.7296887340       -2.6035964647
 H       -11.5533675139       -1.5966225835       -3.7302966057
 H       -11.1466166206       -3.1551503324       -3.0798368468
 H       -10.3519060486       -2.5425272590       -4.4701273713
 Na      -11.3184890420        1.5401368178       -2.5409117348
