117

 C       -10.0304847684       -2.4330854041       -0.2455501494
 C       -10.1318262284       -1.3614576781       -1.3367869692
 O       -10.4827240776       -0.2712026780       -1.0371532251
 C        -9.6254095595       -1.7377048932       -2.8514446074
 C        -9.1494529429       -0.4040398883       -3.5387707459
 O        -9.8531198706        0.2831906189       -4.2653898802
 C        -7.6559838960        0.1139188580       -3.3330181329
 C        -7.4363814279        0.7475193680       -1.9464632257
 C        -8.1448347222        2.1292243109       -1.7743146384
 O        -9.1405913193        2.4634700505       -2.3758758793
 C        -7.5191497188        3.1406174522       -0.7399965499
 C        -7.3012616652        2.5504567180        0.7706264279
 O        -7.2935827543        1.4026659012        1.0736806892
 C        -6.8083749769        3.6715192425        1.7926094813
 C        -6.9194385570        3.2194824549        3.2740137930
 C        -6.2694251216        4.2288060586        4.2048138840
 O        -5.3804914802        4.9939086769        3.9159060938
 C        -6.8714860600        4.2226084649        5.7380239858
 C        -8.3511850395        4.8354728747        5.6156911198
 O        -9.3778973241        4.2230145298        5.6400374537
 C        -8.3785074341        6.3461125318        5.4537806043
 C        -9.3700024270        7.0703665172        4.3877240171
 C        -8.7414050042        7.0634277156        2.9804523232
 O        -8.6440897357        6.0427850241        2.3539443203
 C        -8.2515088193        8.4219981646        2.3517900864
 C        -9.5497843735        9.0355982642        1.6697450558
 O       -10.1435708858        9.9468095323        2.1856178775
 C       -10.1591297906        8.3546131062        0.4592639517
 C       -11.2659920018        7.3344236664        0.9938068639
 C       -12.0390769001        6.6226974738       -0.2062122007
 O       -12.1531874410        7.2336091170       -1.2642355254
 C       -12.7056211597        5.2359240827       -0.0722487063
 C       -12.7627816708        4.4503927059       -1.4437249645
 O       -12.4893289191        3.2891540939       -1.4114178306
 C       -13.3271794718        5.1215600973       -2.6719464712
 C       -14.3168605135        4.2640520249       -3.4599684821
 C       -13.7299893652        2.9074959822       -3.9226485994
 O       -12.5510500537        2.8602935301       -4.2071316581
 C       -14.6691585920        1.6263179994       -3.9196600802
 C       -14.5039714698        0.8254453670       -2.5690143234
 O       -13.3962569599        0.5201531524       -2.1005778931
 C       -15.7612997882        0.3261244941       -1.9410114156
 C       -16.1373847016        2.0158847578       -4.1707509739
 C       -14.1635691589        0.6680878825       -5.0106493281
 C       -12.0535653660        4.2780193186        1.0544415044
 C       -14.2097490543        5.4736427090        0.2476399236
 C        -7.6118114757        9.4569412525        3.3327937611
 C        -7.2296675592        8.1297944051        1.2008751566
 C        -6.9356036036        2.7947042218        6.3056017599
 C        -6.0028560333        5.1693803887        6.6767111781
 C        -6.0865778529        3.5050082781       -1.2472289016
 C        -8.5268789942        4.3221834358       -0.7481394873
 C        -8.4178947046       -2.7033748698       -2.7212728708
 C       -10.8963022047       -2.1997202466       -3.5925971148
 H        -9.1050238446       -2.3472242657        0.2443447135
 H       -10.0908169557       -3.4716664987       -0.5869985515
 H       -10.8866303419       -2.2799017744        0.5282016957
 H        -7.4596740774        0.9268367022       -4.0708034144
 H        -6.9397266641       -0.7269041028       -3.4816372420
 H        -6.3701469767        0.8250128790       -1.7323522239
 H        -7.7672788213        0.1227847392       -1.1108923063
 H        -7.3155222046        4.6262120676        1.6680129342
 H        -5.7387579351        3.8686969613        1.5883113951
 H        -6.5245551397        2.2102329154        3.4277007425
 H        -7.9165086288        3.1448609633        3.6890010896
 H        -7.3844233675        6.7425398468        5.2229820786
 H        -8.7608340651        6.6718337046        6.4577171555
 H        -9.4741955672        8.1568344280        4.7336526861
 H       -10.3552859277        6.6662248575        4.5217932999
 H        -9.3889339627        7.8532223318       -0.1335461445
 H       -10.7171548389        9.0124990554       -0.1588396288
 H       -12.0417440916        7.7251564102        1.6343509253
 H       -10.8842189032        6.6121346796        1.7762950960
 H       -12.5341064129        5.4751497550       -3.3119149036
 H       -13.7399887469        6.0461378138       -2.3866252848
 H       -14.5298989381        4.8613210879       -4.3414547989
 H       -15.2643969502        4.0998605529       -2.9712910463
 H       -16.6509363466        0.9941695452       -1.8423529538
 H       -15.5793988210       -0.0026637704       -0.8849466062
 H       -16.1125925277       -0.5551268577       -2.4128523939
 H       -16.2153389349        2.4995148054       -5.1356269070
 H       -16.3658774253        2.7466467892       -3.4191655834
 H       -16.7995233335        1.1278021794       -4.1837073170
 H       -14.4524298180        1.0169585885       -6.0011766043
 H       -14.7147764122       -0.2768253182       -4.9124760653
 H       -13.1398653836        0.4210176581       -5.0873606529
 H       -10.9869204297        4.4469312055        0.8802338301
 H       -12.2666632389        3.2776942500        0.8963831271
 H       -12.3569412751        4.5261830239        2.0762627001
 H       -14.7393340348        5.9355476898       -0.6190450316
 H       -14.3521187821        6.1421317695        1.1322954685
 H       -14.6031336557        4.5326988212        0.4822947595
 H        -7.2834778689       10.2858110348        2.7124727237
 H        -6.7794793284        9.0843676654        3.8519640283
 H        -8.3111911944        9.7791453133        4.0955358739
 H        -7.6129566126        7.1997486995        0.6922720729
 H        -6.1998599833        7.8355860201        1.4893718090
 H        -7.1080847427        8.9931516309        0.5380606689
 H        -5.9108608862        2.4932465546        6.5136903643
 H        -7.6055040602        2.0501251053        5.8111215726
 H        -7.2535511053        2.8055040714        7.3410157612
 H        -5.1989988370        4.5816057612        7.0746303480
 H        -6.5687469033        5.7292019195        7.4569816987
 H        -5.5309687291        5.8557723003        5.9619985725
 H        -6.0962859520        3.8607251585       -2.2284178363
 H        -5.5154263201        2.5905832529       -1.3663275753
 H        -5.5762581828        4.2305186055       -0.6072799549
 H        -8.1483999710        5.0436079929        0.0295323589
 H        -9.5503236013        3.9215448255       -0.3540739920
 H        -8.7374513437        4.7826790298       -1.7173917078
 H        -7.7409102484       -2.4743432639       -1.9130935881
 H        -7.8470622781       -2.6516704077       -3.6364593282
 H        -8.7926337988       -3.7370048784       -2.5544563296
 H       -11.7268426704       -1.5147315460       -3.5008141300
 H       -11.1488503770       -3.1011510057       -3.1916897243
 H       -10.7026784560       -2.3814199132       -4.6309061667
 Na      -11.1730841982        1.5307056275       -2.6365031106
