117

 C        -9.9853037145       -2.3097546800       -0.2460845061
 C        -9.9826632168       -1.2075468347       -1.2779853198
 O       -10.4284214699       -0.0727191242       -1.0368568149
 C        -9.4511806231       -1.6307246907       -2.7215358443
 C        -9.0777173413       -0.3354932258       -3.5395745386
 O        -9.8544311538        0.2188604453       -4.2833436010
 C        -7.6362428233        0.1254414609       -3.3564398876
 C        -7.1989573734        0.6081016274       -1.9453283143
 C        -8.0020584220        1.9446874726       -1.6507528554
 O        -9.0810511840        2.1247242752       -2.1590296487
 C        -7.3190380376        3.0698419126       -0.7652906631
 C        -7.1658636361        2.5709888678        0.7454420798
 O        -7.7063198280        1.4819073655        0.9132902177
 C        -6.5547185344        3.4448985871        1.8203022344
 C        -6.9242637418        3.1522701200        3.2572322615
 C        -6.4351759965        4.2644181672        4.2200595381
 O        -5.6968465386        5.1108300500        3.7498326197
 C        -6.7725662925        4.4152281732        5.8034946337
 C        -8.1232987254        5.1091749753        5.6925598461
 O        -9.1841940005        4.4821348756        5.6678446311
 C        -8.2490990040        6.6187051818        5.4846804884
 C        -9.2590141119        7.0011275420        4.3911465145
 C        -8.7202396702        7.0464851718        2.9564956016
 O        -8.6807337839        6.0139423846        2.2949021705
 C        -8.3215791773        8.3669030248        2.2942700860
 C        -9.6771539686        8.9798094301        1.6882773389
 O       -10.2423609037        9.9816699019        2.0651296283
 C       -10.3476256730        8.0994808351        0.5303265152
 C       -11.3948583876        7.1082827960        0.9229356990
 C       -11.9478700748        6.4542231879       -0.3068833291
 O       -11.8365765631        7.0433421191       -1.3680871358
 C       -12.7031119921        5.1228061490       -0.1132365467
 C       -12.7636993612        4.3671932134       -1.4409042947
 O       -12.4637446022        3.1901220076       -1.4552946819
 C       -13.1321703250        5.0340239634       -2.7875226105
 C       -14.2432697586        4.2648347709       -3.5026062653
 C       -13.8292805268        2.9169239574       -3.9884734492
 O       -12.7330392449        2.8092985067       -4.4838087337
 C       -14.8500294124        1.6223941561       -3.8410864254
 C       -14.6391154710        0.9363140892       -2.4428393494
 O       -13.5832688837        0.9182339204       -1.8216067274
 C       -15.7545496084        0.1414864026       -1.8936568759
 C       -16.3395908282        2.0772794630       -4.0869677568
 C       -14.3400545707        0.6039531265       -4.8957857954
 C       -12.0685554455        4.2782438853        0.9814170209
 C       -14.2032171192        5.4284854595        0.3740738149
 C        -7.8175843721        9.4663777627        3.3006120171
 C        -7.2863681213        8.2287958393        1.1746389041
 C        -7.0924299633        3.0557478696        6.5174941690
 C        -5.7876988410        5.2791286049        6.4968475752
 C        -6.0770366498        3.5913903392       -1.4870792940
 C        -8.3186748755        4.3436582214       -0.7315540276
 C        -8.3921828763       -2.7973337066       -2.6744622774
 C       -10.6884910863       -2.2668652175       -3.4610077037
 H        -8.9145476473       -2.7547806851       -0.1266608347
 H       -10.6061751910       -3.1522001462       -0.5777264478
 H       -10.3312970790       -1.9796173773        0.6935556828
 H        -7.4330119996        0.9390950513       -4.0460101703
 H        -7.0005578574       -0.7178059152       -3.6274556732
 H        -6.0809119133        0.7583151981       -1.9920551214
 H        -7.3435407549       -0.1793232323       -1.1616665351
 H        -6.9749742012        4.4659269474        1.6509577386
 H        -5.4824589497        3.5439795351        1.6012189962
 H        -6.4912082792        2.2572944533        3.6867852181
 H        -8.0385237307        3.0388896186        3.3739763911
 H        -7.3175291129        7.1075395158        5.2019245567
 H        -8.6713268881        7.0321844606        6.3720961166
 H        -9.5974705046        7.9566899033        4.6571600686
 H       -10.0512023815        6.2500243217        4.4668074077
 H        -9.6054226739        7.5792502963       -0.0556298366
 H       -10.9182857324        8.7870221244       -0.1324545632
 H       -12.2525291264        7.3955467137        1.5197065926
 H       -10.9914446604        6.4351515594        1.6025183892
 H       -12.2049429564        5.2216731214       -3.3234822577
 H       -13.4701030783        6.1151503743       -2.5903820496
 H       -14.5045541772        4.8782181625       -4.3758622700
 H       -15.1586422389        4.1528374013       -2.8927391550
 H       -16.1276538776        0.6096974385       -0.9729648884
 H       -15.4542087761       -0.7943802594       -1.5141856448
 H       -16.6575258727       -0.0414742182       -2.5140748051
 H       -16.4364312203        2.8649962876       -4.8600907058
 H       -16.8002721567        2.3446038149       -3.1111449152
 H       -16.7166758396        1.1978464745       -4.5249916856
 H       -14.8336812482        0.5808147257       -5.8635043830
 H       -14.3525737053       -0.4324022478       -4.5724064853
 H       -13.2536593626        0.7916899108       -5.1308432285
 H       -11.0052435314        4.0692969280        0.7740692834
 H       -12.6735776705        3.3100702609        1.1377517997
 H       -12.2295108309        4.8518190231        1.8926056814
 H       -14.6902594196        6.0962733543       -0.2987817185
 H       -14.0662425385        5.9861898774        1.2880262496
 H       -14.7915919643        4.5217599513        0.6885238220
 H        -7.6987110112       10.4189372690        2.8172963476
 H        -6.8422175298        9.1990789137        3.7506257050
 H        -8.5795482328        9.5490234701        4.1082672194
 H        -7.5483903196        7.4048030110        0.5347726701
 H        -6.2792145311        8.0623931648        1.5431999745
 H        -7.2321261028        9.1693505554        0.6040743056
 H        -6.2327740104        2.5777499201        6.9745011772
 H        -7.6248805992        2.4136432286        5.8820361953
 H        -7.7095278337        3.1300590076        7.4354268382
 H        -4.9520924533        4.6280155338        6.7998868485
 H        -6.3420184924        5.6103130247        7.3737236091
 H        -5.3906607741        6.1366699776        5.9587385156
 H        -6.1870787048        3.6269822018       -2.5998406206
 H        -5.1840930726        2.9981109227       -1.3427742418
 H        -5.8562373100        4.5903223808       -1.1545190498
 H        -7.8295228043        5.1962104159       -0.3167404602
 H        -9.2206464597        4.2223286914       -0.2126832439
 H        -8.5726407004        4.4756381725       -1.7965482291
 H        -7.5135198813       -2.5524845693       -2.0617445549
 H        -8.0928706180       -2.8772722411       -3.7367151457
 H        -8.7808442427       -3.6805139424       -2.2751395240
 H       -11.3594423040       -1.4616620887       -3.7591600062
 H       -11.3157104672       -3.0550344486       -2.9793906414
 H       -10.1904655423       -2.6711873667       -4.3489787214
 Na      -11.4256057676        1.4732716639       -2.5531117705
