117

 C        -9.5486407107       -1.8900551955        0.1085072498
 C        -9.9953175065       -1.1436812776       -1.1990523544
 O       -10.8560168588       -0.2865905217       -1.1427518408
 C        -9.4673334649       -1.6425084902       -2.5593885172
 C        -8.9956314481       -0.3632199360       -3.3917903031
 O        -9.7983728068        0.2342969661       -4.0390944719
 C        -7.4986387175        0.2061908568       -3.3576841787
 C        -7.0580756431        0.8343372865       -2.0239412446
 C        -7.9642424832        2.0724244387       -1.6254231847
 O        -9.1301058347        2.0299207805       -1.7679989607
 C        -7.2419859393        3.0705053005       -0.6583126032
 C        -7.2597052353        2.4579197816        0.8656568467
 O        -7.9747799898        1.5740435205        1.2120945933
 C        -6.3021137684        3.2014999361        1.7604195266
 C        -6.7726949590        3.2725490301        3.1574118353
 C        -6.3730116018        4.4903804026        3.9014572844
 O        -5.9514768747        5.4823044348        3.3129565660
 C        -6.7341522165        4.5403814536        5.4109366275
 C        -8.0755764473        5.2607379628        5.6061335525
 O        -9.1235433073        4.7532564954        5.9592078055
 C        -8.0797591102        6.7646055834        5.3199378745
 C        -9.2702773453        7.2322501632        4.3664924561
 C        -8.7330701059        7.2342749949        2.9573203960
 O        -8.6760981522        6.1809821841        2.3292927508
 C        -8.4158094286        8.5597805655        2.2976013194
 C        -9.8649901751        9.0158472119        1.6471172035
 O       -10.4626318643        9.9307933791        2.1182899961
 C       -10.4327009995        8.2353381208        0.3574602907
 C       -11.3973341329        7.1671109075        0.8258441933
 C       -11.7274841124        6.2973139666       -0.3502331033
 O       -11.2493783599        6.5173523572       -1.4492681731
 C       -12.7375658650        5.0385959513       -0.1510436474
 C       -12.5908209955        4.2427241103       -1.4562277333
 O       -11.8594062807        3.3074898126       -1.5019661184
 C       -13.2851823956        4.8599178474       -2.7101389258
 C       -14.3630350378        4.0008407575       -3.3286887646
 C       -14.0253186539        2.5741347607       -3.8870457310
 O       -12.8955108906        2.3614485884       -4.2570556971
 C       -15.1406745488        1.4500662426       -3.8219666035
 C       -14.9726393457        0.7352189864       -2.4462138638
 O       -13.8556795389        0.7960891438       -1.8995363380
 C       -16.0997294950        0.1258262719       -1.8010222697
 C       -16.6037950565        1.9238915651       -4.0691832489
 C       -14.8323789007        0.3486937823       -4.9087170029
 C       -12.4309996870        4.2285162089        1.1756626453
 C       -14.1736572262        5.5773215728       -0.0630055177
 C        -7.8377728845        9.6384452336        3.1911774809
 C        -7.3926491935        8.2995115275        1.1850754931
 C        -6.8907833225        3.1262270034        5.9848487116
 C        -5.5612003666        5.3283147822        6.1465563952
 C        -5.7502961540        3.2822917666       -1.0669187094
 C        -7.9753970134        4.4258163955       -0.6288887814
 C        -8.2235890701       -2.6034555742       -2.3610743344
 C       -10.5426789556       -2.3267844218       -3.4203816750
 H        -8.5082090665       -2.2517508329        0.1232133222
 H       -10.2074757244       -2.7679611079        0.3554800634
 H        -9.5063745519       -1.2176360333        1.0508073297
 H        -7.2902950088        0.8758584418       -4.2130988236
 H        -6.8414143118       -0.6703259134       -3.5738659841
 H        -5.9727638343        1.0132732631       -2.0756598394
 H        -7.3491387285        0.0367506106       -1.3174315071
 H        -6.0530671582        4.2043405490        1.3228413400
 H        -5.3205075672        2.6896112719        1.6863006743
 H        -6.5509626485        2.3709030898        3.6356148465
 H        -7.8999469324        3.3644148522        3.1898422912
 H        -7.1576929854        7.0805504221        4.7607934210
 H        -8.0792724430        7.3144898339        6.2588205739
 H        -9.5718621821        8.1864299537        4.6700960150
 H       -10.0187384480        6.4839199152        4.4346879711
 H        -9.6347208745        7.8553277241       -0.2420629868
 H       -10.9088726098        9.0071981706       -0.2404156198
 H       -12.2395086725        7.6248980520        1.3120361590
 H       -10.9375876682        6.5766587117        1.5736379176
 H       -12.4960310055        5.1984427247       -3.3273046266
 H       -13.7862031059        5.8134103471       -2.3479415063
 H       -14.6583635336        4.5828824763       -4.1846523745
 H       -15.1960705006        3.9357770201       -2.6398953486
 H       -15.6745033892       -0.5903151774       -0.9889988086
 H       -16.6614199013       -0.5457688680       -2.4014092995
 H       -16.8146927080        0.7861480555       -1.3617700138
 H       -16.6656082908        2.2858467591       -5.1052471103
 H       -16.7272218330        2.7159103942       -3.3087040226
 H       -17.2651524139        1.1466401880       -3.8554183650
 H       -14.3213526217        0.8098970387       -5.7427558445
 H       -15.6051457789       -0.2647399326       -5.2936029193
 H       -14.1041293919       -0.4153440718       -4.5979532377
 H       -11.4628384151        3.6829227769        1.0949033085
 H       -13.2097555355        3.4442024551        1.1576531114
 H       -12.4609304199        4.8297255915        2.0658854276
 H       -14.4436379810        6.3079139621       -0.8210212892
 H       -14.3191243425        6.0702160586        0.9095013454
 H       -14.8596532752        4.7266211022       -0.0670673637
 H        -7.4572147619       10.3692932633        2.5389363179
 H        -7.0385877626        9.2585584481        3.7501144049
 H        -8.5928984877       10.2175306575        3.7638123365
 H        -7.6165014681        7.5999779474        0.3850021055
 H        -6.4137563107        8.1234196612        1.6768876119
 H        -7.3021953077        9.2543161655        0.6110186842
 H        -6.3306418598        2.3563850497        5.4657908423
 H        -7.8650927995        2.8091327885        5.7370629672
 H        -6.8304156933        2.9887271758        7.1161477567
 H        -4.6767143061        4.6975276328        6.0674307400
 H        -5.7685530496        5.3792028516        7.2533687303
 H        -5.3350538275        6.3284925169        5.7684963478
 H        -5.5960321466        3.5364318793       -2.1056737532
 H        -5.0783348339        2.5292527712       -0.7284079773
 H        -5.3519229940        4.1558237231       -0.5902505307
 H        -7.7819673150        4.9624009799        0.3392713569
 H        -9.0869139592        4.2329646898       -0.5739377991
 H        -7.6652742130        5.0283301897       -1.5252337305
 H        -7.6023722468       -2.2739124125       -1.5328164946
 H        -7.6414404094       -2.7110843157       -3.3088889419
 H        -8.6167961094       -3.5312802868       -2.1136610833
 H       -11.3798496772       -1.6651190322       -3.4261213519
 H       -10.8160489807       -3.2072648657       -2.9972369124
 H       -10.2005879421       -2.4308702502       -4.4189041053
 Na      -11.4521788458        1.3822043397       -2.8129404269
