117

 C        -9.1883908647       -1.0391526024        0.2374326617
 C       -10.0986212917       -1.0725808782       -0.9519003475
 O       -11.1813858959       -0.5234365168       -0.9313204028
 C        -9.4619648930       -1.7457484978       -2.2553632820
 C        -9.1473188615       -0.4286495815       -3.1464113106
 O       -10.0992532069        0.0516575061       -3.6932662449
 C        -7.7509507289        0.0345276566       -3.4019635415
 C        -7.0936457083        0.9851044343       -2.2823764329
 C        -7.9323789355        2.1567102762       -1.7871458147
 O        -9.1045858423        2.2422961140       -1.9825429591
 C        -7.1857333184        3.1829135096       -0.8414059702
 C        -7.1572595722        2.5732349782        0.7025553149
 O        -7.6263672126        1.5172964969        0.9831229978
 C        -6.5137098165        3.4821639982        1.7150389317
 C        -6.7381070382        3.3086899631        3.2053428821
 C        -6.2318268813        4.5029368737        3.9799376738
 O        -5.7509095514        5.4401716586        3.3612116630
 C        -6.5239767839        4.7474485967        5.5360360529
 C        -7.8258841913        5.6567921913        5.5285036870
 O        -8.9072655221        5.1373395482        5.7320855629
 C        -7.6972923734        7.1547258633        5.2586222574
 C        -9.0462292551        7.7317952249        4.6664826070
 C        -8.8659597361        7.4068714262        3.1206795360
 O        -8.8579700644        6.3212407297        2.5492743769
 C        -8.5866059257        8.7116760229        2.1903671232
 C        -9.9653697642        9.1513077698        1.6911050523
 O       -10.7159745463        9.8138066565        2.3487670704
 C       -10.5272006895        8.6090754244        0.3215313749
 C       -11.2728039752        7.3063638980        0.5914684984
 C       -11.3878553044        6.3264909816       -0.5807062672
 O       -10.6600557210        6.2329450987       -1.5199791143
 C       -12.6754195775        5.2507023322       -0.4390624655
 C       -12.5913721139        4.0312142501       -1.4651689545
 O       -12.2004694246        2.9431346065       -1.0655882226
 C       -12.8997929128        4.1940006759       -2.9885922032
 C       -14.2653696119        3.5019123749       -3.2368451756
 C       -14.1394196199        2.1023681648       -3.8722869343
 O       -13.1119777246        1.7278276013       -4.4492935910
 C       -15.3482168830        1.0773401157       -3.7858162758
 C       -14.9678260155        0.2730785345       -2.4601297316
 O       -13.8602366350       -0.1377404342       -2.2469684852
 C       -16.1580528348        0.0695492236       -1.5719689832
 C       -16.6088790788        1.8782699179       -3.8946984207
 C       -15.2935936068        0.1119173977       -4.9418166837
 C       -12.5077436423        4.6873277215        0.9636613915
 C       -13.9791901205        6.1581549233       -0.5898358489
 C        -7.9739681646        9.9347372009        3.0133386097
 C        -7.6929052149        8.2452945959        1.1032079327
 C        -6.6762766696        3.4637536775        6.3503671544
 C        -5.2847473292        5.5850777067        6.1299894367
 C        -5.6313618183        3.4131779517       -1.2869670592
 C        -7.9876258311        4.5242274641       -0.8106369703
 C        -8.2266393061       -2.7162410468       -2.1262089253
 C       -10.4972237761       -2.5368804363       -3.0395249873
 H        -9.4415142166       -0.2981650288        1.0402120504
 H        -8.2095964860       -0.8159825366       -0.1162570234
 H        -9.0360896043       -1.9424862937        0.7687754957
 H        -7.7936048771        0.5728346832       -4.3458815625
 H        -7.0992866863       -0.8222513875       -3.5502080489
 H        -6.0816927068        1.2195362236       -2.6856519974
 H        -6.9161217774        0.3118388989       -1.3956853389
 H        -6.9100029410        4.4714234060        1.4791695272
 H        -5.4442316154        3.6327392401        1.4581464743
 H        -6.1784919683        2.3573974636        3.6208672656
 H        -7.8004347349        3.2402442928        3.4609380390
 H        -6.8869620091        7.4200449438        4.6514815723
 H        -7.3604368297        7.6392953563        6.1886369125
 H        -9.1891353067        8.7534380145        4.9418894346
 H        -9.8491890920        7.1780008210        5.1629033885
 H        -9.8168062531        8.3884859115       -0.4648802172
 H       -11.1607208065        9.3871791991       -0.1244293043
 H       -12.2703833411        7.6605554922        0.9382293553
 H       -10.6402915034        6.6883839966        1.2427871497
 H       -11.9535643282        3.7493838267       -3.4762533562
 H       -12.9849822965        5.2566127661       -3.1908231179
 H       -14.9441258152        4.0984072081       -3.8638959251
 H       -14.8192762492        3.3608888770       -2.2944339672
 H       -16.4845132778       -0.9600864043       -1.5674293758
 H       -16.9692775836        0.6828289112       -1.7219647393
 H       -15.7991109516        0.1652825657       -0.5355027214
 H       -16.5113814578        2.3149785880       -4.8960681101
 H       -16.6196644736        2.6576594497       -3.1580286467
 H       -17.4689818320        1.1781125824       -3.8009893473
 H       -15.5115076236        0.5323038555       -5.9017975722
 H       -15.9859753512       -0.7366224477       -4.8551941832
 H       -14.3347416163       -0.3721750823       -5.1047870094
 H       -11.5955414260        4.1495048838        1.1701372453
 H       -13.4146214484        4.0163521775        1.1718356939
 H       -12.6014721840        5.5647896588        1.6371633885
 H       -13.9460696742        6.8077765550       -1.4446616111
 H       -14.2135123929        6.7331056853        0.2688143333
 H       -14.8681207525        5.4990916512       -0.8572311934
 H        -7.5197681290       10.6343952792        2.3287956432
 H        -7.1585974094        9.5894813530        3.6856372966
 H        -8.7023021489       10.3921999098        3.6172303229
 H        -8.1673653422        7.4358374918        0.4944012974
 H        -6.7710348867        7.7367246812        1.4229559851
 H        -7.4071127234        9.0450921859        0.4027924862
 H        -6.1242071692        2.6164221463        5.8729158837
 H        -7.6715141528        3.0342163644        6.3947208779
 H        -6.3553663256        3.5638082465        7.3706388494
 H        -4.3159468425        4.9838815089        6.2039039268
 H        -5.5084569791        5.7951109687        7.1408019995
 H        -5.0391585183        6.5423395103        5.6229510829
 H        -5.4665303540        3.6103277109       -2.3545443805
 H        -4.9497393210        2.5977909143       -1.0937402421
 H        -5.2537874411        4.2687482667       -0.7728876096
 H        -7.3726669762        5.4458345230       -0.7648708644
 H        -8.7489257126        4.4028901988       -0.0912819807
 H        -8.5661372403        4.6578570214       -1.7846870548
 H        -7.4221269783       -2.2856660332       -1.5394167066
 H        -7.8188429228       -2.8812020194       -3.0733009813
 H        -8.5882330732       -3.6932102219       -1.7499855434
 H       -11.3241968182       -1.8785788286       -3.2096297437
 H       -10.8163192513       -3.3963410775       -2.4437680528
 H       -10.0803996299       -2.8798962842       -3.9726583932
 Na      -11.9352783105        0.9858551570       -2.6698689983
