117

 C        -9.1925944270       -1.1649524462        0.4132173266
 C        -9.9757267966       -1.0696196591       -0.8374795445
 O       -11.0359347410       -0.4737311935       -0.7951397633
 C        -9.4982160063       -1.6381630847       -2.1810269322
 C        -9.1790005032       -0.4379580295       -3.1353151906
 O       -10.0918504764        0.1331735946       -3.7418914059
 C        -7.7083246634        0.0769632912       -3.4257310946
 C        -7.0892566456        0.9459094355       -2.2920947729
 C        -7.9202866042        2.1504296283       -1.6703483913
 O        -9.1417982192        2.1748015534       -1.9524041214
 C        -7.2693060950        3.2621607723       -0.7928216760
 C        -7.1492854163        2.6759644172        0.6850944383
 O        -7.3294205043        1.4713948760        0.9934145250
 C        -6.7315566111        3.8235671917        1.6222241455
 C        -6.7218747824        3.4627289748        3.1189102429
 C        -6.0482257971        4.7374949382        3.9048471768
 O        -5.3752068165        5.5272777906        3.2757978681
 C        -6.4183474990        4.8174451846        5.3910194016
 C        -7.7667037539        5.7314414231        5.4322856961
 O        -8.8534327081        5.2159924398        5.6601250053
 C        -7.5900863166        7.2309948940        5.3259181352
 C        -8.8644818915        7.7713675293        4.7156265062
 C        -8.9268276085        7.4888877435        3.2077433912
 O        -9.0923161245        6.3907229674        2.7197641633
 C        -8.6043616176        8.7631400998        2.0965011789
 C       -10.0460626185        9.1458529317        1.5599585764
 O       -10.7460220121        9.8367156389        2.3136486929
 C       -10.5803811501        8.5942748314        0.2837438532
 C       -11.1701485298        7.1350585180        0.6484392737
 C       -11.3476477463        6.1970118280       -0.6295240165
 O       -10.7009165098        6.2660108024       -1.6562145130
 C       -12.5955636014        5.1787006699       -0.4815863646
 C       -12.5561694502        3.9570609599       -1.5025465602
 O       -12.3939892058        2.8340597148       -1.0721915781
 C       -12.7195314142        4.1782066068       -3.0261539667
 C       -14.0336722261        3.5789421259       -3.5229369782
 C       -14.0382157385        2.0547471683       -4.0098144246
 O       -13.0494364825        1.6536424187       -4.5256608920
 C       -15.3869062163        1.0963665645       -3.7264057454
 C       -15.1776992168        0.1831283046       -2.4471038107
 O       -14.0699488018       -0.2899841390       -2.2470133310
 C       -16.2416055361       -0.2156711445       -1.4389752729
 C       -16.8467322123        1.7837691141       -3.7010670235
 C       -15.2442386633        0.0795356313       -4.9192799506
 C       -12.7387715939        4.6190681002        0.9876292731
 C       -13.8665707388        5.9558543991       -0.8639924656
 C        -8.0153248874        9.8871993822        2.8820071939
 C        -7.5754729605        8.2430884354        1.0735609714
 C        -6.8340788245        3.4620839768        5.9334482418
 C        -5.2002281189        5.5015274141        6.1360467205
 C        -5.8043530732        3.4692501401       -1.1920009564
 C        -8.1728110839        4.5857637074       -0.8823480230
 C        -8.2516186375       -2.6423852702       -1.8733023841
 C       -10.6921837675       -2.4396191325       -2.7416598900
 H        -9.8048100791       -1.3729191093        1.2950929875
 H        -8.6964618576       -0.2211541089        0.6794285666
 H        -8.4243827320       -1.8894337731        0.4438000251
 H        -7.7602459230        0.7069870745       -4.3139411625
 H        -7.0665793117       -0.7956714853       -3.6000646478
 H        -6.1297732288        1.2866279121       -2.6715984797
 H        -6.7532432966        0.2784402242       -1.5255726217
 H        -7.4167182880        4.6704923725        1.5873934966
 H        -5.8051687463        4.2247100879        1.2348418794
 H        -6.2550849573        2.5934298330        3.3782997898
 H        -7.7846399544        3.4149485041        3.3916530654
 H        -6.7017541280        7.5054897504        4.6702644275
 H        -7.3158984593        7.7375821300        6.2378754476
 H        -8.8761047802        8.8841948648        4.9200214048
 H        -9.7238139087        7.3490237891        5.2832809914
 H        -9.7675890012        8.5882953583       -0.5008432526
 H       -11.4030776128        9.2071652658       -0.1012690228
 H       -12.1505991765        7.4628381287        0.9348175407
 H       -10.5049887898        6.5672340977        1.3481743544
 H       -11.8837986064        3.6795407883       -3.4360166739
 H       -12.7058323052        5.2479388877       -3.3088831153
 H       -14.3551993477        4.1756555152       -4.3982077171
 H       -14.8720297274        3.7100564110       -2.8137767629
 H       -16.9047313470       -0.9737540403       -1.8331469033
 H       -16.9323128061        0.6829035643       -1.1742715568
 H       -15.8095242408       -0.7540307043       -0.5957140911
 H       -16.8942291455        2.5840085730       -4.4349176979
 H       -16.8396338418        2.2183725116       -2.6830898850
 H       -17.6091297739        1.0218790727       -3.8627127590
 H       -14.9558879928        0.5093816043       -5.8961529729
 H       -16.1648358252       -0.4418701665       -5.1656137343
 H       -14.5272396117       -0.7086792317       -4.8087344940
 H       -11.8836056372        3.9243268276        1.1506388433
 H       -13.6086556535        4.0339730182        0.9941672741
 H       -12.8465391421        5.3218121326        1.8231762294
 H       -13.9239389383        6.5067308499       -1.8233584144
 H       -14.0799054971        6.7174130478       -0.0584475558
 H       -14.6735494860        5.2972309257       -0.8506666551
 H        -7.5669214616       10.5697752530        2.1165549360
 H        -7.1460464741        9.5911205903        3.4547577706
 H        -8.7486879469       10.3576284965        3.5862043043
 H        -7.8078793576        7.4171430670        0.4574521615
 H        -6.7042155518        7.9063310358        1.6058253208
 H        -7.1459320891        9.0314890256        0.4999504823
 H        -6.1605472597        2.6124951178        5.8296023027
 H        -7.8085461919        3.1769688290        5.4345325096
 H        -7.0165847827        3.4224768960        7.0100860030
 H        -4.4633473389        4.7672269978        6.2087939918
 H        -5.3272665809        5.9964878872        7.1460172907
 H        -4.7469831860        6.2105906972        5.4649257155
 H        -5.6343251808        3.3354454133       -2.2420325157
 H        -5.2438548534        2.5702164813       -0.9095967694
 H        -5.2916820534        4.4007807261       -0.8331187190
 H        -7.5667761483        5.4295394997       -0.7416483464
 H        -8.9999347893        4.5353532959       -0.1847068830
 H        -8.6457179032        4.6966926750       -1.7833071701
 H        -7.3073395550       -2.1798992957       -1.5761382203
 H        -8.0059724854       -3.3642073940       -2.7048376677
 H        -8.6357560253       -3.2012407551       -1.0263276326
 H       -11.5815870781       -1.7835833959       -2.5616185954
 H       -10.8205240062       -3.3677854598       -2.0832906131
 H       -10.5694566389       -2.7297734739       -3.8180944933
 Na      -11.8653725321        0.9186219736       -2.3829730820
