117

 C        -8.9647424281       -1.3612945596        1.1169366955
 C        -9.5882243856       -1.0460720599       -0.2505630243
 O       -10.4266060525       -0.1135903806       -0.2212534080
 C        -9.4613230934       -1.7338299634       -1.7023971724
 C        -9.1595168793       -0.6025941568       -2.7558120500
 O        -9.9768365571       -0.2629753741       -3.5614842868
 C        -7.7790388855       -0.0509437063       -2.9634680351
 C        -7.3148460599        1.0044578768       -1.8665558060
 C        -8.1995429887        2.2039332849       -1.5819642720
 O        -9.4017415006        2.0690356585       -1.3328812716
 C        -7.4777072039        3.4850507732       -1.1347084949
 C        -7.0689718833        3.2254180209        0.4250097769
 O        -6.5288842278        2.1552554653        0.7096588909
 C        -7.0109657517        4.4093730556        1.3477315252
 C        -6.9811163786        3.9224377274        2.8030338946
 C        -6.0483810540        4.7828099870        3.7038168241
 O        -5.2283661381        5.5242844961        3.1590663268
 C        -6.3042942949        4.7258148892        5.2956527599
 C        -7.5932690761        5.8094495717        5.4074627548
 O        -8.6869160447        5.3466702393        5.5985781198
 C        -7.2732456477        7.3334578304        5.1988606261
 C        -8.5195558561        8.0113791486        4.5806017342
 C        -8.7819007162        7.6247014506        3.1526127925
 O        -9.0286402384        6.4697442969        2.8782569402
 C        -8.6661986792        8.6198100529        1.9296727478
 C        -9.9720577938        8.8378018031        1.1915180675
 O       -10.8457580525        9.6236377457        1.5794969229
 C       -10.4130938735        7.9890445327       -0.0179486827
 C       -11.2282142703        6.7607789604        0.5015079946
 C       -11.7717197868        5.9895464210       -0.6802399247
 O       -11.2530942608        6.1947302938       -1.7657515484
 C       -13.0214646653        4.9711983704       -0.6236646779
 C       -12.6013652121        3.8160567074       -1.5914412208
 O       -12.1429396702        2.8529024991       -0.9993753622
 C       -12.7090036684        3.9935154951       -3.0618778360
 C       -13.9633701570        3.5944586036       -3.9712304691
 C       -13.9084120805        1.9825795012       -3.9157115524
 O       -12.8802369450        1.3579627457       -4.1168632483
 C       -15.2761405708        1.2009882110       -3.5962961394
 C       -15.0707495812        0.2645759741       -2.4080757083
 O       -14.0692249643        0.1137564862       -1.7318857593
 C       -16.3098889696       -0.6289565584       -2.1168398320
 C       -16.5062511951        2.0023054703       -3.2675582126
 C       -15.5501902556        0.3736821475       -4.8792394065
 C       -13.3263928521        4.3810695563        0.7942923348
 C       -14.2042932221        5.7491782083       -1.1850037108
 C        -8.2551769011       10.0670523131        2.4175846470
 C        -7.5609588165        8.0740044086        1.0379306986
 C        -6.6561673101        3.3412781005        5.9105180637
 C        -5.1542071912        5.3857902450        6.0065281042
 C        -6.1945382895        3.8278324570       -1.9789501810
 C        -8.5173522145        4.6518150116       -1.2472499267
 C        -8.3221857763       -2.7966403138       -1.8072267920
 C       -10.8620597873       -2.3571591619       -1.9643311525
 H        -8.3567038789       -2.2610612764        1.2506594875
 H        -9.7476916163       -1.5585780114        1.8893117171
 H        -8.2359849428       -0.4950557396        1.3925658166
 H        -7.7722966412        0.3234057177       -4.0053716864
 H        -7.0446916974       -0.8763294633       -2.8433896353
 H        -6.2562433496        1.2184994394       -2.0161966783
 H        -7.2150670466        0.4296572610       -0.9199343156
 H        -7.8531819762        5.1054805733        1.2998580210
 H        -6.0810043641        4.8981335677        1.0302506257
 H        -6.5246442298        2.9401501644        2.8488583735
 H        -7.9669416915        3.7917245231        3.2087063272
 H        -6.3815148354        7.4289866914        4.5899009227
 H        -7.1796096892        7.8501372055        6.2183485153
 H        -8.4801445811        9.0637272681        4.7055672741
 H        -9.3544857465        7.5992771577        5.1881594356
 H        -9.5809688962        7.6339919128       -0.5785035627
 H       -11.1989127742        8.4950572428       -0.5750721807
 H       -12.0778907982        7.1077043057        1.1377391349
 H       -10.5932283021        6.0832270152        0.9873362696
 H       -11.9627245577        3.3767647349       -3.5238831058
 H       -12.3978739281        5.0377658614       -3.3366315940
 H       -13.7517932530        3.7761419140       -5.0132633438
 H       -14.9326687103        4.0283534723       -3.7525797297
 H       -16.8818791967       -0.9064708926       -3.0822719898
 H       -17.0328283436       -0.1510652140       -1.4433957837
 H       -16.0872917737       -1.5986757513       -1.7127702955
 H       -16.7767542390        2.7469694117       -4.0497119454
 H       -16.3867891691        2.4815717688       -2.2746098134
 H       -17.3207791730        1.3111815283       -3.2092631556
 H       -15.5512790252        1.0258186693       -5.7356422454
 H       -16.4228697868       -0.2286303354       -4.9966924275
 H       -14.7225464300       -0.3222757026       -5.1384028341
 H       -12.6041929045        3.5927480600        1.0019605637
 H       -14.2939510395        3.8488100877        0.7950223095
 H       -13.3101669246        5.0761181140        1.5708997910
 H       -13.9252557758        6.2557190962       -2.0888885967
 H       -14.5434600187        6.5191842567       -0.5398380897
 H       -15.1661100851        5.1653824218       -1.3328888637
 H        -8.3852930612       10.8175658696        1.6681410230
 H        -7.2364986975       10.0786949498        2.8357786856
 H        -9.0349855775       10.3876435344        3.1866956974
 H        -7.9280768694        7.1721210541        0.6040309841
 H        -6.6332864057        7.8153579509        1.5216684068
 H        -7.3965278558        8.7107560821        0.1691290676
 H        -5.8509962366        2.6247322902        5.6319000150
 H        -7.5737912145        3.0179982393        5.5315989625
 H        -6.7171899287        3.1994605866        7.0735314737
 H        -4.3381236416        4.6618006395        6.1332789882
 H        -5.4044318598        5.6909694402        7.0022364433
 H        -4.7523160630        6.2652973946        5.5482433090
 H        -6.3861694546        3.4636112567       -3.0562165002
 H        -5.2246862014        3.4864831886       -1.5952050853
 H        -6.1129799940        4.8955091608       -2.1038075406
 H        -8.1526876545        5.6284289887       -1.1225880960
 H        -9.2455900251        4.5769267501       -0.4120854886
 H        -8.9862626153        4.5177813446       -2.1870538003
 H        -7.2746883734       -2.4572775808       -1.5943354119
 H        -8.4370507037       -3.3857830819       -2.7325725911
 H        -8.4796506321       -3.5360178518       -1.0496385213
 H       -11.6810748733       -1.6198836883       -1.8131489227
 H       -10.9910508155       -3.1139762859       -1.2564492356
 H       -10.9257380265       -2.8356544930       -2.9573177038
 Na      -11.6507645138        0.8146724818       -1.9986315342
