117

 C        -9.0092358310       -1.3827553505        0.9091317742
 C        -9.7619643725       -0.9025651290       -0.3454265981
 O       -10.5301535348        0.0247501126       -0.2083715590
 C        -9.4789229799       -1.6634761937       -1.7467011940
 C        -9.1448570852       -0.5871046315       -2.9326938119
 O       -10.0653308399       -0.1623219831       -3.6337439351
 C        -7.7145775986        0.0009026279       -3.0999925863
 C        -7.2335474279        0.8743771239       -1.8584868617
 C        -8.1806537764        2.0625708290       -1.4822248339
 O        -9.3649179363        2.0247759495       -1.4099720683
 C        -7.5016722066        3.4287025936       -1.0905690284
 C        -6.9455902062        3.2261578940        0.4363794276
 O        -6.7489141410        2.0968013002        0.7337472828
 C        -7.0117738386        4.3259798991        1.4349393563
 C        -6.8975052825        3.8251374422        2.8865760726
 C        -6.0720852207        4.7216825930        3.7911494023
 O        -5.2342023146        5.4868682850        3.3442642153
 C        -6.3268944770        4.8108913562        5.3398057290
 C        -7.6246376415        5.7159763714        5.4466093438
 O        -8.7205771324        5.2779520004        5.5736565215
 C        -7.3820483618        7.1882992654        5.2188381237
 C        -8.4811827760        8.1128633158        4.6234041611
 C        -8.7873336938        7.6108087607        3.1984120612
 O        -9.0431608720        6.4580599784        2.9371396089
 C        -8.7241705754        8.6060514355        1.9440050585
 C       -10.0791363613        8.9209473804        1.2678473400
 O       -10.7911129608        9.7782565827        1.7347064316
 C       -10.3822514498        8.0159260675        0.0101178507
 C       -11.1198769115        6.7927262461        0.5420650515
 C       -11.6146080097        5.9802071863       -0.6456423339
 O       -11.1777039334        6.1587496933       -1.7701521149
 C       -12.9366529332        5.0243794200       -0.5654729668
 C       -12.6099376611        3.8365777217       -1.6450763532
 O       -12.1618041414        2.8113180448       -1.1467364109
 C       -12.5687691118        4.0326275627       -3.1998019854
 C       -13.8604419633        3.5213189034       -3.8407717818
 C       -13.9970744540        2.0404782016       -3.9141080337
 O       -12.9725802082        1.3654496379       -4.1415503915
 C       -15.2490538914        1.1899651295       -3.6359055496
 C       -15.0460150089        0.1183422893       -2.3784783274
 O       -14.0380138104        0.0238328082       -1.7203269231
 C       -16.3261184261       -0.5765733542       -1.9682018208
 C       -16.5314435927        2.0616164339       -3.3960467050
 C       -15.5076777168        0.3706285738       -4.9517618175
 C       -13.3014536272        4.4516086871        0.7914546635
 C       -14.2335106627        5.7677962611       -1.0353084736
 C        -8.3113001884       10.0958292272        2.4821310662
 C        -7.5772608778        7.9976705787        0.9986905376
 C        -6.6204441078        3.4448942639        5.9101412705
 C        -5.1218516327        5.4499980407        6.1206239762
 C        -6.2135751735        3.7505226683       -1.9493849644
 C        -8.4826412197        4.5827129960       -1.4225018750
 C        -8.3084250774       -2.6674197623       -1.8523712394
 C       -10.8206245143       -2.3509470381       -2.0811816219
 H        -8.5879759017       -2.3544053150        0.8880930858
 H        -9.6719428714       -1.5222445843        1.7169080910
 H        -8.1442061313       -0.7025615865        1.1667889165
 H        -7.7089208967        0.5974337768       -4.0169444271
 H        -6.9659405579       -0.7871793136       -3.1472294665
 H        -6.2774979433        1.2560340385       -2.1853098878
 H        -6.8581406426        0.2659089530       -1.0736139510
 H        -7.9348608641        4.8202156484        1.3544579061
 H        -6.2142308269        5.0723713819        1.2003773550
 H        -6.4770892833        2.8248237720        2.8613388497
 H        -7.8134214798        3.7526152001        3.3478033475
 H        -6.4828507140        7.2925887866        4.5842011147
 H        -7.1462223343        7.5751906889        6.2433529120
 H        -8.1370429269        9.1804885387        4.6614892991
 H        -9.3879243584        7.9957892643        5.2596716519
 H        -9.4688197791        7.6090558322       -0.4213005702
 H       -11.1093390182        8.4779506648       -0.6784002495
 H       -12.0118549066        7.0789790936        1.1091678202
 H       -10.3475224138        6.1731255079        1.0873795972
 H       -11.6878179118        3.5379243378       -3.6476772642
 H       -12.5241736378        5.0271493364       -3.4427489293
 H       -14.0684479014        3.8611401696       -4.8794131884
 H       -14.7092490742        3.8911720573       -3.2539079341
 H       -17.0583195132       -0.8374452704       -2.7967856522
 H       -16.8318197931        0.0044672725       -1.2071194858
 H       -16.0947376364       -1.6035980501       -1.5499074101
 H       -16.5518209432        2.8588972296       -4.1409677834
 H       -16.6238938775        2.4696729895       -2.3970612975
 H       -17.4258097346        1.4285059549       -3.7006793951
 H       -15.9924600804        0.9310757895       -5.7367843215
 H       -16.1754156617       -0.5084684191       -4.8430622194
 H       -14.6510136053       -0.0572885507       -5.4674295931
 H       -12.6131985216        3.7380217630        1.1919115949
 H       -14.2901635933        3.9102490787        0.7004579016
 H       -13.4848902270        5.2659216172        1.5285950655
 H       -13.9372243698        6.3084587429       -1.9177267826
 H       -14.6712253038        6.4919276941       -0.3815863429
 H       -15.1197503959        5.1363040736       -1.2570342440
 H        -8.1951594189       10.8516418249        1.6597393666
 H        -7.3727883371       10.0642390469        3.1282381650
 H        -9.1399628408       10.4690448412        3.0422528944
 H        -8.0029518390        7.1042415980        0.5486100581
 H        -6.7107959709        7.6373751662        1.5394875296
 H        -7.2067777918        8.5764000906        0.1760174732
 H        -5.8074913077        2.7158320569        5.6776464902
 H        -7.6368371612        3.0700316195        5.7077768201
 H        -6.5157401901        3.4673436759        7.0000438371
 H        -4.2194561024        4.7889247875        6.0402772061
 H        -5.3208918326        5.6210297188        7.1283534689
 H        -4.8286308293        6.4444789264        5.7606384267
 H        -6.3103697431        3.2585266511       -2.9343955047
 H        -5.2230325447        3.4973890527       -1.5032884112
 H        -6.1528667961        4.8183785681       -2.2033951203
 H        -7.9437548571        5.4677583347       -1.2490992243
 H        -9.3038032922        4.6763410546       -0.8277006707
 H        -8.7645067283        4.4885619306       -2.4586477120
 H        -7.3291114441       -2.2263379392       -1.6413280212
 H        -8.3900009204       -3.0975240438       -2.8078032903
 H        -8.3399423014       -3.5498287238       -1.1348500257
 H       -11.6987926391       -1.6151824925       -2.0892075635
 H       -11.0571996515       -3.1439488757       -1.3454850231
 H       -10.7000997709       -2.8758893367       -3.0965651186
 Na      -11.6956342158        0.7622505724       -2.0502533032
