117

 C       -10.0885239598       -0.7288301340        2.8867282333
 C       -10.1158145132       -0.4395820432        1.4064278453
 O       -10.6432784800        0.6005530824        1.0066389411
 C        -9.2709135189       -1.3504069520        0.3640612951
 C        -9.8227145057       -1.1951435358       -1.1231678232
 O       -11.0048202529       -1.2277579991       -1.2903798341
 C        -8.9132864047       -1.0356820304       -2.3251358324
 C        -7.8955387502        0.0808341746       -2.3456271931
 C        -8.3938476362        1.5034412343       -1.8447610946
 O        -9.6129623768        1.6139350139       -1.6379712974
 C        -7.4098049153        2.7298739959       -1.7331175909
 C        -7.0469041392        2.8211834572       -0.1426901120
 O        -7.1850843457        1.9044541977        0.5901097492
 C        -6.5391781524        4.1978540118        0.4094134042
 C        -6.2559987467        4.0393992069        1.9062326424
 C        -5.1951339743        5.0787442154        2.4850109137
 O        -4.3761855706        5.7001479307        1.8195217336
 C        -5.3498251379        5.2795771755        4.0429853084
 C        -6.8178610846        6.0316809991        4.2156992683
 O        -7.7771913189        5.4630061280        4.7075645451
 C        -6.8091826058        7.5003178911        3.8226058883
 C        -8.2463180465        8.0558198025        3.6336785078
 C        -8.7278459183        8.3136328957        2.1568789092
 O        -8.5003253289        7.5292741144        1.2435233449
 C        -9.5593880498        9.5404699937        1.8284724239
 C       -10.9424045220        9.0909318943        1.3303138309
 O       -11.9244556335        9.6402237080        1.8301509578
 C       -11.1157510674        8.0978472393        0.2276478069
 C       -12.4290207452        7.3078262601        0.1424000995
 C       -12.3674346031        6.2717665370       -0.9054893647
 O       -11.3691605665        6.0551398927       -1.5806436152
 C       -13.6617403454        5.3733297622       -1.1219461847
 C       -13.1692353481        3.9830975733       -1.6758683407
 O       -12.8333655867        3.1169369891       -0.8868591029
 C       -13.0110772455        3.8809072319       -3.2726614755
 C       -14.0049463190        2.8073866970       -3.9268364175
 C       -13.5207124479        1.4671340168       -3.5183683658
 O       -12.3799649443        1.1646743509       -3.7741611116
 C       -14.6027358253        0.3381860608       -3.1570901055
 C       -14.0261055062       -0.6762440402       -2.2308293884
 O       -13.5898430469       -0.3192653762       -1.1241941040
 C       -14.1000012607       -2.2051320053       -2.5006324735
 C       -15.8298763828        1.0501118556       -2.4377426557
 C       -15.0086046501       -0.2649542291       -4.5987036104
 C       -14.4746993867        5.2213454969        0.2542772466
 C       -14.5978964452        6.0593443389       -2.1727715933
 C        -9.7581138399       10.4967900516        3.0278391897
 C        -8.8152954677       10.3211736630        0.6831080494
 C        -5.3908633695        3.8343846992        4.7107689731
 C        -4.1276903815        6.0401786427        4.5677121508
 C        -6.0463606424        2.5459866478       -2.4872959874
 C        -8.0948688731        3.9699725976       -2.2771277793
 C        -7.7327207033       -1.2211589144        0.5634563204
 C        -9.6136632668       -2.8198091312        0.7360912316
 H       -10.6732808002       -0.0626494217        3.4966549666
 H        -9.1325495205       -0.8578940458        3.2904923646
 H       -10.5214047561       -1.7827180471        3.0046451895
 H        -9.5811417772       -0.9439084594       -3.1996216600
 H        -8.3501544180       -1.9697813742       -2.5576860326
 H        -7.6845497339        0.2693490426       -3.4343151376
 H        -6.9103783182       -0.2206969190       -1.9342069407
 H        -7.1927716809        5.0574571599        0.3129676767
 H        -5.6227874295        4.3726099623       -0.1772191369
 H        -5.9242932390        3.0305596252        2.3063806610
 H        -7.1695698403        4.2553594735        2.5077307540
 H        -6.1899746881        7.6381568276        2.9684805181
 H        -6.3982061635        8.0403590630        4.7114566792
 H        -8.3693265447        8.9898136259        4.1094032589
 H        -8.9466876774        7.3638007766        4.0860125409
 H       -10.3708748204        7.3889197061        0.3779636558
 H       -11.1214625293        8.6357015325       -0.7204580367
 H       -13.2585031849        8.0358469951        0.0185350736
 H       -12.5406685685        6.8185439027        1.1037920614
 H       -12.0060787604        3.6388884137       -3.5419561608
 H       -13.0918272908        4.9574030830       -3.5937336666
 H       -13.8219910543        2.9693704081       -4.9834281359
 H       -15.0731366055        2.9793228052       -3.6420558824
 H       -13.7934778003       -2.5050824963       -3.5339023117
 H       -15.0877546711       -2.5380705509       -2.3050670544
 H       -13.4951776435       -2.6695423427       -1.7639394153
 H       -16.6240300325        1.5838405387       -2.9742674502
 H       -15.4317205365        1.6370107457       -1.5870570556
 H       -16.4144872059        0.2752428328       -2.0124018436
 H       -15.2668389270        0.6246024422       -5.1706660400
 H       -15.9071856560       -0.8187404272       -4.3541911427
 H       -14.1576288538       -0.7949286333       -5.0040591037
 H       -13.8011029527        4.6996774338        0.9778751855
 H       -15.2760207917        4.5207144402        0.0794402224
 H       -14.8937412233        6.1804700592        0.6560063640
 H       -14.0356172780        6.4817350672       -3.0247302304
 H       -15.1305306759        6.8013082855       -1.6166557367
 H       -15.3878341148        5.3826520583       -2.5515329592
 H       -10.3270664069       11.3822657652        2.6832521121
 H        -8.7969555271       10.7653928203        3.5142976293
 H       -10.2514895168        9.9660370134        3.8492320688
 H        -8.5197238530        9.5809759320       -0.0575814369
 H        -7.9818055528       10.8849268964        1.0848438904
 H        -9.4582169780       11.1195890849        0.2921480235
 H        -4.6576882265        3.2178045398        4.2707086190
 H        -6.4189369365        3.4956669815        4.3458018923
 H        -5.2726836075        3.9089209165        5.7367584856
 H        -3.3330800108        5.3643456868        4.3293537191
 H        -4.1963109591        6.1400075022        5.6909382892
 H        -3.9406669641        7.0019848079        4.1117474667
 H        -6.1390400140        2.0920416126       -3.4823368061
 H        -5.4072143903        1.8937197748       -1.9138877279
 H        -5.5781445335        3.4950944634       -2.5318837042
 H        -7.3971246112        4.7647915211       -2.3294476492
 H        -8.9314726224        4.2397055148       -1.7772899866
 H        -8.3452890820        3.8272080947       -3.3051545651
 H        -7.5015418446       -0.1833686646        0.8292694240
 H        -7.2397056043       -1.5091121895       -0.4244641278
 H        -7.4717223758       -1.9225526371        1.3046579400
 H       -10.7106630560       -3.0264059760        0.6351303061
 H        -9.3357557130       -3.0384872512        1.7485921392
 H        -9.0393934049       -3.4917869808        0.0736105635
 Na      -11.6676464936        1.0398041219       -0.9775010476
