117

 C        -9.4126754095        0.7828662458        2.9915559279
 C       -10.0165225519        0.2065028934        1.6996692854
 O       -10.9062623193        0.8230626577        1.1763795832
 C        -9.5252906197       -1.2242374994        1.1735818470
 C        -9.6756811857       -1.2440636530       -0.4081910420
 O       -10.7718883970       -1.3958404170       -0.8434305922
 C        -8.4066226150       -1.2635500774       -1.2910653681
 C        -7.6442817628        0.1208624661       -1.1734992868
 C        -8.4342586794        1.3465470651       -1.5676405353
 O        -9.5917772777        1.2422796765       -1.9232835203
 C        -7.7361162243        2.7576267216       -1.5460850014
 C        -7.2111128163        2.9708305512       -0.1232561136
 O        -7.9175066292        2.5843272788        0.7814692229
 C        -5.8437289730        3.5867864893        0.1647344566
 C        -5.7165586317        3.9233915920        1.6670919196
 C        -4.7940718816        5.1188566934        1.9949634962
 O        -3.9266771888        5.4685803871        1.2609727492
 C        -4.9787079923        5.8165288732        3.4692389741
 C        -6.3798063132        6.4781108692        3.4626492888
 O        -7.4024634018        5.8962719755        3.7824614587
 C        -6.5445791661        7.9306597008        2.8411245880
 C        -8.0068269958        8.4564431502        2.9031258744
 C        -8.5280321134        9.0921272196        1.6358703149
 O        -7.9170709687        9.1564935942        0.6049865621
 C        -9.9824285588        9.7108096415        1.7646708126
 C       -11.0320852304        8.5951515128        1.5446535664
 O       -11.7019085831        8.2147348207        2.4825970605
 C       -11.1412910212        7.9054497579        0.1314848379
 C       -12.0213299531        6.6793387439        0.3512519627
 C       -12.2392767878        5.9187550638       -0.9050919497
 O       -11.5364354526        6.0232284193       -1.8577491797
 C       -13.5548019778        4.9030232465       -1.1401104312
 C       -12.9791162348        3.5182444530       -1.4807616673
 O       -12.9534215717        2.7216218598       -0.5686973088
 C       -12.4012523187        3.2260451636       -2.9155889839
 C       -13.5061160490        2.6046871585       -3.7489913399
 C       -13.5374679982        1.0643918474       -3.5680322914
 O       -12.4515356310        0.5719106142       -3.6596699109
 C       -14.7600097335        0.1584471746       -3.4353200706
 C       -14.3620767736       -0.9815568714       -2.4747929806
 O       -13.6350412311       -0.8818417788       -1.5087064167
 C       -15.1542754712       -2.2894850299       -2.5454645409
 C       -15.9869725423        0.8873748606       -2.7900880795
 C       -15.2073681416       -0.2919345979       -4.8468384411
 C       -14.4072983743        4.9275010689        0.1352251125
 C       -14.3451037966        5.4883612481       -2.3227843265
 C       -10.2043426411       10.4553709271        3.1196952468
 C       -10.2136682187       10.8256768068        0.6580467748
 C        -4.8941677372        4.7284015424        4.5508048662
 C        -3.9161981345        6.8727520806        3.7830311417
 C        -6.7114392144        2.8960537624       -2.6851452428
 C        -8.9292296937        3.7411093228       -1.8406290039
 C        -8.0593296144       -1.5886703741        1.8141061451
 C       -10.5679971926       -2.1833235912        1.8502776714
 H       -10.1389224909        0.5899022211        3.8038603989
 H        -9.5282647494        1.8241528960        2.8439397234
 H        -8.4899634930        0.5490817585        3.3443893469
 H        -8.6914097264       -1.4015095734       -2.3343282934
 H        -7.7250620196       -2.0461409600       -0.9394721603
 H        -6.8198922709        0.1327453127       -1.8905753227
 H        -7.2224946300        0.2598366854       -0.1903266963
 H        -5.6721906679        4.4781737481       -0.4882925740
 H        -5.1313638488        2.7780199732       -0.2524482714
 H        -5.3407979321        3.0620579505        2.2264462932
 H        -6.6508520308        4.2312495001        2.0839444714
 H        -6.3077517560        7.7717965972        1.8167259800
 H        -5.8138232019        8.6364477826        3.1646205856
 H        -8.0706694308        9.1681053005        3.7389006808
 H        -8.6997996287        7.6551908282        3.1985513874
 H       -10.1292641898        7.6766160936       -0.2738639636
 H       -11.3968448599        8.5880235798       -0.7462719390
 H       -12.9710608470        7.0750317922        0.8049502955
 H       -11.7060955257        5.9823002861        1.1485285900
 H       -11.6642038728        2.4678289430       -2.8039440405
 H       -11.9988728847        4.1508412842       -3.4029689522
 H       -13.3574132023        2.6297664556       -4.8355800065
 H       -14.4503214977        3.2388582890       -3.6721703685
 H       -16.0226270252       -2.1662225603       -3.2814023431
 H       -15.4241469375       -2.5931625780       -1.5735516959
 H       -14.4481997729       -3.0139786728       -2.8896391420
 H       -16.3251245504        1.7424153623       -3.4182354333
 H       -15.5608125772        1.3071908948       -1.8552314728
 H       -16.8218915813        0.2642162857       -2.5608957515
 H       -15.2113139489        0.6248194249       -5.4368345776
 H       -16.2550050466       -0.5885958798       -4.7145474865
 H       -14.5168350399       -1.0337332135       -5.1733869386
 H       -13.7603648729        4.7974023909        1.0263708872
 H       -15.1276985127        4.1338244497        0.1925667113
 H       -14.9563917916        5.9249081386        0.1950904856
 H       -13.7974147491        5.3483928534       -3.2789456558
 H       -14.6306905464        6.5302119456       -2.1797683225
 H       -15.2672177555        4.8839892746       -2.3976527842
 H       -11.1988193675       10.9796240216        3.1929032642
 H        -9.5097560945       11.3087597982        3.2871326139
 H       -10.1375260335        9.7475748474        3.9217940446
 H       -10.1358770356       10.3624613072       -0.3286272385
 H        -9.3911347862       11.5431432174        0.6470262425
 H       -11.2383825601       11.2228474902        0.7336307264
 H        -3.8886051116        4.2417495369        4.6413106985
 H        -5.5440297748        3.8877352200        4.2960416470
 H        -5.1035772356        5.1486885208        5.4972662158
 H        -2.9650808441        6.4450460983        3.6219259705
 H        -4.0746664479        7.0904859119        4.8739017139
 H        -3.8461517772        7.7465236543        3.1672101808
 H        -7.0589671819        2.6147440285       -3.6870891472
 H        -5.8899990901        2.2412416961       -2.4379452777
 H        -6.2502225361        3.8439046260       -2.7895220240
 H        -8.5224532748        4.6942921203       -1.8999655969
 H        -9.7524041664        3.7168466779       -1.1441682848
 H        -9.3263353890        3.4663150258       -2.8065028442
 H        -7.1338670727       -1.2705734272        1.3291826295
 H        -7.9594127536       -2.7264725218        1.8543243406
 H        -8.0690166945       -1.2489913579        2.8334538974
 H       -11.5890111273       -2.0796467874        1.4818078235
 H       -10.4150046009       -2.0488769724        2.8542189033
 H       -10.3667816439       -3.2180948739        1.6048514130
 Na      -11.7686863110        0.7031438816       -1.0421235620
