117

 C        -9.8290697203       -0.1886428073        2.9923199864
 C       -10.1660557144       -0.1361408528        1.5331203259
 O       -11.0511061775        0.5889315192        1.1239507442
 C        -9.4425913388       -1.2503974331        0.6134220681
 C        -9.6556308507       -1.1813407826       -0.9988391057
 O       -10.8254683298       -1.3246542434       -1.3911617346
 C        -8.5836142220       -1.1890163662       -2.0454479143
 C        -7.7446015835        0.0738736868       -2.1515737538
 C        -8.4798732529        1.4944894049       -1.8963940095
 O        -9.6530141792        1.6466283426       -1.6217285169
 C        -7.4637901504        2.7464383318       -1.7887329517
 C        -7.1734596234        2.8892419816       -0.2354566540
 O        -7.4637954017        1.9760334092        0.4681770890
 C        -6.5732538938        4.2205011686        0.2799571631
 C        -6.0535077279        3.9031571759        1.6675998081
 C        -5.1203480015        4.9661290557        2.3439226651
 O        -4.3848931674        5.6239492323        1.6221971570
 C        -5.1670283216        5.2688573474        3.8769333338
 C        -6.6174678027        6.0305719853        3.9442837287
 O        -7.5983332444        5.5067417371        4.4351831374
 C        -6.7100940071        7.4432280704        3.4262409249
 C        -8.1711613608        7.9582678483        3.4220763700
 C        -8.5490321702        8.5885600693        2.0899749997
 O        -7.9811460484        8.1947799721        1.0906751496
 C        -9.6161515757        9.6141691941        1.8640682271
 C       -11.0407584878        8.9810352140        1.4367841943
 O       -12.0352259263        9.5034266725        1.9322451481
 C       -11.1032469746        7.8975240233        0.3332640615
 C       -12.5797614577        7.3499266896        0.1238337943
 C       -12.5245299741        6.2425125310       -0.9735581179
 O       -11.5307408497        6.1700512915       -1.7017836299
 C       -13.6991547515        5.2475046967       -1.1989693131
 C       -13.0700132401        3.9824147600       -1.7868943977
 O       -12.9164467573        3.0537595906       -1.0113816724
 C       -12.7269209053        3.7304507949       -3.2515260824
 C       -13.7488608019        2.6772291655       -3.8464911861
 C       -13.4254985115        1.2530069923       -3.3590031576
 O       -12.2519749672        0.9128362290       -3.2952092042
 C       -14.5623789963        0.2220200391       -3.1526292838
 C       -14.1164988733       -0.9055511554       -2.1940423849
 O       -13.6174898244       -0.4707006562       -1.1611103919
 C       -14.1969267710       -2.4592987209       -2.4859638708
 C       -15.7966902523        0.8608854254       -2.4625690578
 C       -15.0480913595       -0.2259826314       -4.5503824259
 C       -14.3918972508        4.8738549979        0.1242083232
 C       -14.6694090865        6.0445987588       -2.0322527292
 C        -9.8239014518       10.5656047763        3.1437384201
 C        -9.1623962604       10.5621533577        0.6979667797
 C        -5.2611061447        4.0405026408        4.8804834256
 C        -4.0187410234        6.1701162363        4.3554577469
 C        -6.0700752845        2.6042773617       -2.4201050002
 C        -8.2449633336        3.9606240019       -2.3126699100
 C        -7.9402478237       -1.0680498495        1.0564122551
 C       -10.0542071293       -2.6604495860        1.0111398389
 H        -9.2338123356        0.6772970616        3.3003172456
 H        -9.3336641046       -1.1031654308        3.3331285733
 H       -10.8314352453       -0.2545693375        3.6133540464
 H        -9.0627557307       -1.3943818407       -3.0050954220
 H        -7.9605265351       -2.0614358761       -1.9288694406
 H        -7.3391563187        0.1371136446       -3.1753767555
 H        -6.9414089884        0.0031131590       -1.4116107826
 H        -7.4645299760        4.7652361436        0.3202462023
 H        -5.8589853392        4.7462618704       -0.3756679167
 H        -5.5512819216        2.9073561584        1.6691923856
 H        -6.8901214515        3.9260883246        2.3246746950
 H        -6.2351985798        7.5799317826        2.3979649516
 H        -6.1091531047        8.0559339819        4.1327459977
 H        -8.3050692910        8.7625996113        4.1932163585
 H        -8.8856635557        7.1604190204        3.7054830161
 H       -10.5625350776        6.9929985027        0.6273096176
 H       -10.8367407242        8.3395420674       -0.6265998870
 H       -13.2430951434        8.0780126358       -0.3252280601
 H       -13.0149644303        7.1447692601        1.1035958498
 H       -11.6757181615        3.4058465716       -3.1977547389
 H       -12.6884160451        4.7035589108       -3.7632595031
 H       -13.6564682061        2.6272727508       -4.9068983806
 H       -14.7086369352        3.1093512284       -3.5934080502
 H       -13.2036177470       -2.8195534866       -2.7572748264
 H       -14.9006828952       -2.6937179444       -3.3069670668
 H       -14.4624461859       -2.9456379328       -1.5116872078
 H       -16.0445328808        1.7418060349       -3.0705847323
 H       -15.5860519856        1.2715194021       -1.4738346631
 H       -16.6921592561        0.2564240174       -2.4059331025
 H       -15.2070996579        0.6860923113       -5.0538920320
 H       -15.9143068191       -0.8100017118       -4.3477104625
 H       -14.1861130838       -0.7671823234       -4.9917600021
 H       -13.6877325994        4.3641330382        0.7676525767
 H       -15.2420366985        4.2242441549       -0.0723410998
 H       -14.7561424513        5.7518153105        0.5819750552
 H       -14.3318224332        6.3956977890       -2.9910195538
 H       -15.0288223961        6.8353520434       -1.4568631680
 H       -15.5508657485        5.3413746736       -2.1030065313
 H       -10.5656659074       11.2934826222        3.0076562752
 H        -8.8837847011       10.9991480392        3.4284616574
 H       -10.1435469267       10.0119794920        4.0605192518
 H        -9.2098915847       10.0005742460       -0.2309719519
 H        -8.1876967097       11.0077150287        0.8457530529
 H        -9.8768622304       11.3916570223        0.6518866447
 H        -4.3266951880        3.4966681284        4.9646365514
 H        -6.2633069457        3.4409942061        4.6846806349
 H        -5.4930703013        4.5007816477        5.8471651522
 H        -3.0774889216        5.6469283927        4.1230859783
 H        -4.1024289090        6.1987786843        5.4330636662
 H        -4.1172036528        7.1767199880        4.0139741022
 H        -6.0422214232        2.5038961541       -3.5536317588
 H        -5.5918410718        1.6957742015       -2.0443348894
 H        -5.4733222693        3.4346846785       -2.0956609316
 H        -7.7534787580        4.9835142591       -2.0897037279
 H        -9.1992639368        3.9553157286       -1.7986156235
 H        -8.3710789503        4.0038242474       -3.4259867256
 H        -7.7705539766       -0.0148478664        1.2606769490
 H        -7.3118007771       -1.5406222115        0.2702502616
 H        -7.7986774703       -1.6575546449        1.9000065037
 H       -11.1489510279       -2.5723355747        0.9362662825
 H        -9.9468501548       -3.0172893391        2.0535373453
 H        -9.5591535737       -3.3675831029        0.3468879777
 Na      -11.8321785538        0.9875826925       -1.1019472404
