117

 C        -9.4428719254        0.8720282438        2.7651223825
 C       -10.1820017764        0.1176565550        1.7388794034
 O       -11.1903318522        0.5758407922        1.2181688054
 C        -9.5019490407       -1.3015527057        1.1360931439
 C        -9.5851959781       -1.1695010704       -0.4299849797
 O       -10.6957571397       -1.3452046023       -0.9489943098
 C        -8.3395498876       -1.1604103612       -1.3394926710
 C        -7.6408014779        0.1545362729       -1.4726546130
 C        -8.5326250946        1.3954430868       -1.7867251511
 O        -9.6192041400        1.2687892841       -2.2613294798
 C        -7.6524287408        2.8131916937       -1.6384290991
 C        -7.2472279694        2.9215326156       -0.1356877170
 O        -7.8706411522        2.3451514398        0.7671048394
 C        -5.9605575243        3.6997305496        0.2770304795
 C        -5.8522031619        3.9300955151        1.7766701239
 C        -4.8510434894        5.0700310411        2.1553899175
 O        -4.0816542472        5.6002065514        1.3750769760
 C        -5.0365620213        5.6562788057        3.5916661086
 C        -6.4247059442        6.4171809777        3.5846117293
 O        -7.3579976712        5.7206301322        3.9264846390
 C        -6.6840243151        7.7081948571        2.8445932398
 C        -8.0809609023        8.2175321637        2.9826531435
 C        -8.5081969360        9.0114803916        1.7517948430
 O        -7.8983436940        8.9845694684        0.6954370878
 C        -9.9397274728        9.6980352525        1.7793769520
 C       -11.0587507045        8.6720014128        1.5475463960
 O       -11.9025973754        8.5550959898        2.3976663343
 C       -10.9442626461        7.7621461198        0.2984195879
 C       -12.1395813850        6.8832161125        0.2015070160
 C       -12.2682483197        6.0246653656       -1.0757753024
 O       -11.5446852041        6.1995223342       -2.0460654911
 C       -13.5349352157        5.0403856113       -1.0924466157
 C       -13.0707883466        3.6647276306       -1.4542701840
 O       -13.0894857033        2.8104106069       -0.5721788660
 C       -12.5307826978        3.3919564817       -2.8810619175
 C       -13.5907283939        2.5721762124       -3.7087209342
 C       -13.4200533726        1.1095098420       -3.5301295021
 O       -12.3079995125        0.5912878524       -3.6781512997
 C       -14.7039369588        0.1779626611       -3.3306191849
 C       -14.3472082186       -0.9379433597       -2.3860806834
 O       -13.6559300598       -0.7300861044       -1.4021750452
 C       -14.7993599973       -2.3416985027       -2.5414036494
 C       -15.8727748676        0.9131689432       -2.5810382898
 C       -15.1090162075       -0.3220598829       -4.7802294285
 C       -14.4118695233        5.0387850145        0.2290702833
 C       -14.4094195572        5.6534938656       -2.1679671913
 C       -10.2143067255       10.3799168445        3.1592752942
 C        -9.8439202331       10.7941200864        0.6260734420
 C        -5.1241207469        4.5794976838        4.6518025318
 C        -3.8685827992        6.6072584786        3.8082766506
 C        -6.5116187679        2.8209871326       -2.6444918957
 C        -8.6078373708        3.9697368195       -1.9786054852
 C        -8.0749939653       -1.5458371668        1.5625010747
 C       -10.4834559911       -2.4295087226        1.6333905163
 H        -9.0588587798        0.3478858249        3.6062001677
 H       -10.0297303380        1.7987352813        3.1066898237
 H        -8.5581207604        1.3048173389        2.1797775180
 H        -8.6155619258       -1.4784565453       -2.3602707584
 H        -7.5764180050       -1.8578995899       -0.9500515321
 H        -6.9360629241        0.0516292649       -2.3285514607
 H        -7.0841853174        0.3813874705       -0.5277674673
 H        -5.9443536110        4.6199143214       -0.2990424765
 H        -5.1211795040        3.1567141071       -0.0280658825
 H        -5.4010629524        2.9953964038        2.1363502161
 H        -6.7749694904        4.2321833299        2.3505262728
 H        -6.4324248883        7.5300283374        1.7620936689
 H        -5.8760787585        8.4325692153        3.1112247916
 H        -8.2269610391        8.7746615770        3.9065825648
 H        -8.7610978907        7.3648747279        3.1226395158
 H       -10.0854844994        7.0985138865        0.3327336630
 H       -10.6644241364        8.3557864699       -0.5096629578
 H       -13.0083631139        7.4925695304        0.3396404491
 H       -12.2053173856        6.2899636767        1.1045254598
 H       -11.5507470820        2.8407312574       -2.8683486289
 H       -12.4190545722        4.3535205706       -3.3446188857
 H       -13.5333521953        2.7370731666       -4.8084238319
 H       -14.5623507950        2.9419898470       -3.5021943700
 H       -15.0715265288       -2.5515562887       -3.4863918227
 H       -15.7031683619       -2.3672079977       -1.8534608645
 H       -14.0137069551       -3.0295331150       -2.1522409588
 H       -16.2891866761        1.7002836248       -3.1750034899
 H       -15.6932715425        1.2842676570       -1.6012151664
 H       -16.6023566973        0.0836179475       -2.4599232467
 H       -15.3444348403        0.5560550426       -5.3777893278
 H       -15.9866694353       -0.9367199569       -4.7165571640
 H       -14.1919700929       -0.8519038649       -4.9961405720
 H       -13.9617394277        4.4540469839        1.0228671247
 H       -15.3551575953        4.4953956006       -0.0489153388
 H       -14.7177563706        5.9925359208        0.5843439690
 H       -13.8067718535        5.6786779300       -3.0601565663
 H       -14.5700203895        6.7247164396       -1.9343622880
 H       -15.2923708450        5.0929259440       -2.3900912550
 H       -11.1441147796       10.9202054390        3.0565469630
 H        -9.5670861909       11.1922730568        3.4079729321
 H       -10.4247528867        9.6823944029        3.9827680662
 H        -9.6377727075       10.4377986710       -0.3889303712
 H        -8.9931943198       11.4419086404        0.8335386487
 H       -10.8111547139       11.2657507385        0.6071917115
 H        -4.1763994049        4.0416131886        4.7357170174
 H        -5.9764201847        3.9332654370        4.5397316187
 H        -5.1938047835        5.1118292333        5.6408813378
 H        -2.8798669867        6.2618131148        3.4153897099
 H        -3.8220612017        6.8745458675        4.8331592188
 H        -4.0598472596        7.4788636673        3.1540215204
 H        -6.9170465551        2.9733765725       -3.6135172218
 H        -5.8002202260        1.9802991818       -2.6529250714
 H        -5.8887145584        3.7483211332       -2.5194918824
 H        -8.1115692195        4.9436732325       -1.9333387770
 H        -9.3646403740        4.0107808268       -1.1813287514
 H        -9.1133977379        3.7928383096       -2.8858692786
 H        -7.4429320927       -0.6481473261        1.5027978900
 H        -7.6961534412       -2.2313107319        0.8842588156
 H        -7.9976266223       -1.9839523366        2.5905607414
 H       -11.4772814652       -2.2796245547        1.1810515502
 H       -10.4681806625       -2.4853747989        2.8116167666
 H       -10.2000001870       -3.4372843878        1.2281440218
 Na      -11.8583019035        0.6600843817       -0.9660016635
