117

 C        -9.5234606201        0.8419150626        3.1393139611
 C        -9.7886921611        0.3181973054        1.7537341566
 O       -10.4957548846        1.0383247417        1.0385068679
 C        -9.5021376009       -1.1888691550        1.3929974986
 C        -9.5903906275       -1.2986320474       -0.1681802041
 O       -10.7011228071       -1.6090213672       -0.6462722254
 C        -8.3682271624       -1.2016757304       -1.0593644075
 C        -7.5869272664        0.0845113612       -1.0052060816
 C        -8.4696162702        1.3169231918       -1.4101056980
 O        -9.6569910712        1.1382498349       -1.6196097235
 C        -7.8258540796        2.7122142900       -1.4697519419
 C        -7.2575620099        2.9933073628       -0.0366377495
 O        -7.9595952531        2.7454655475        0.9135217147
 C        -5.8895569693        3.7536891057        0.1756500306
 C        -5.6764304483        3.9892137896        1.6319017632
 C        -4.6896791267        5.1800868283        1.9055772463
 O        -3.8075365351        5.5305269498        1.1269201896
 C        -4.9266189358        5.9368953876        3.2258566579
 C        -6.4405591269        6.5867877596        3.2056266424
 O        -7.3600828309        5.9268813990        3.6486842039
 C        -6.5528045015        7.9859528665        2.6807182545
 C        -7.9346533356        8.6506620797        2.8979118810
 C        -8.6083847599        9.2737066284        1.5921555128
 O        -7.9567490098        9.2181381218        0.5461752926
 C       -10.0334408717        9.8368753419        1.7278186913
 C       -10.9961008507        8.5268206277        1.6765178852
 O       -11.3586533802        7.9965949648        2.7305616515
 C       -11.3415127901        7.9371413340        0.2849969317
 C       -11.9350631316        6.5201924977        0.3642702973
 C       -12.2404407720        5.7556918889       -0.9856473416
 O       -11.4052023063        5.8152856095       -1.9023546690
 C       -13.5875730276        4.8533349623       -1.1967280892
 C       -12.9212137021        3.4724767281       -1.5632849509
 O       -12.7675080902        2.6485441726       -0.6645067863
 C       -12.4213396660        3.3249567473       -2.9306957569
 C       -13.4845707288        2.4969237813       -3.7168898724
 C       -13.4769777609        1.0189658369       -3.4649681375
 O       -12.4219569846        0.3719852708       -3.5764024050
 C       -14.8220296684        0.2373006329       -3.3956852116
 C       -14.5818991140       -1.0414491880       -2.5335033480
 O       -13.6962119501       -1.0043676544       -1.7116638480
 C       -15.4835643123       -2.1903938254       -2.5933818844
 C       -15.9421253549        1.0996515707       -2.9388811623
 C       -15.2083757837       -0.3787103212       -4.9086390158
 C       -14.4675290007        4.6279066398        0.0337502309
 C       -14.4201962947        5.4911041831       -2.3457320017
 C       -10.3197246495       10.5068781452        3.0974391825
 C       -10.3329891172       10.7613634849        0.5588399381
 C        -4.9682570328        4.9101559640        4.3934819224
 C        -3.7587805814        6.9862347354        3.3694595636
 C        -6.7769091484        2.8141658884       -2.5625780863
 C        -8.9091228483        3.8392891681       -1.6355662678
 C        -8.1818003329       -1.7962080938        1.8007563449
 C       -10.7478734085       -1.9620724522        2.0456624022
 H       -10.3759532441        0.8169275428        3.8203920700
 H        -9.1893938469        1.9032280736        3.1823468992
 H        -8.7321736071        0.0956917821        3.5834143638
 H        -8.6170929116       -1.4452970589       -2.0924576888
 H        -7.6764733549       -1.9087337528       -0.6140913361
 H        -6.6053597626        0.0227032722       -1.4969996761
 H        -7.3108811031        0.2310965202        0.0615852480
 H        -6.0975741274        4.7081800214       -0.2823295981
 H        -5.1240104132        3.3333032233       -0.3778190540
 H        -5.2424608881        3.1311871381        2.1612320304
 H        -6.6287590821        4.2198120989        2.1727567033
 H        -6.2231174178        8.0259436668        1.5850894494
 H        -5.7641275908        8.5576522074        3.2352352119
 H        -7.7195923753        9.3776315551        3.6892128547
 H        -8.6490355917        7.9278747965        3.3296695432
 H       -10.5323672277        8.0722457107       -0.4225943377
 H       -11.9600277716        8.6289393230       -0.1999404506
 H       -12.7258780421        6.6004111574        1.0803943564
 H       -11.2442305732        5.8431511537        0.8964506462
 H       -11.4291915135        2.7953508723       -3.0120783628
 H       -12.4483930675        4.2653543086       -3.4198710078
 H       -13.3976884850        2.6945093759       -4.7884033315
 H       -14.4316429398        2.8976713600       -3.5260086632
 H       -16.4729772325       -1.8242481773       -2.3803102778
 H       -15.0422524934       -2.8182236741       -1.8032416423
 H       -15.4160193340       -2.7506372608       -3.5353460274
 H       -16.2458362262        1.7876254283       -3.7243493152
 H       -15.6424218594        1.6090215813       -2.0297921380
 H       -16.9018699804        0.5248270653       -2.7842361980
 H       -15.4699300130        0.4776174524       -5.5030653573
 H       -16.0429475827       -1.0171864341       -4.7280567012
 H       -14.2603516832       -0.8476636765       -5.2495606554
 H       -13.9406469211        4.3204376874        0.9037778801
 H       -15.1548137531        3.7845661570       -0.1840532096
 H       -14.9977530463        5.4813430940        0.2435558432
 H       -13.8670038172        5.9435068752       -3.1357783490
 H       -15.0073911558        6.2240637201       -1.8122171270
 H       -15.1850854246        4.8332357337       -2.7563042457
 H       -11.1602400200       11.1160661236        3.1718001446
 H        -9.4785407601       11.1154532132        3.3981120294
 H       -10.2784112303        9.6863766090        3.8516573274
 H        -9.8242505296       10.3302011767       -0.2945027339
 H        -9.8946279902       11.7447276496        0.6949730397
 H       -11.3744406191       10.8552305012        0.3254400129
 H        -4.1971691322        4.1707102060        4.2910569434
 H        -5.8338232937        4.1875264631        4.4151254830
 H        -4.7740734855        5.5021825756        5.3194275223
 H        -2.8260710168        6.5261176475        3.7974112353
 H        -4.0249351194        7.8181815911        3.9271077707
 H        -3.3883558666        7.2738441108        2.3829304507
 H        -7.1173940820        2.3914448390       -3.5003927432
 H        -5.7952580728        2.3623211944       -2.3806999065
 H        -6.5483636794        3.8707773334       -2.7917238780
 H        -8.4545279550        4.8962881785       -1.4262251220
 H        -9.6498326197        3.5642704304       -0.8599901263
 H        -9.4969560191        3.8527928888       -2.5979375562
 H        -7.3852471367       -1.0309046114        1.7884457307
 H        -7.7979049049       -2.5682144894        1.2006222535
 H        -8.2422658551       -2.1193098549        2.8405325183
 H       -11.6066101328       -1.6044765386        1.5154780427
 H       -10.7208707425       -1.7481204873        3.1201764830
 H       -10.7690056782       -3.0046094160        1.8842870803
 Na      -11.8892758669        0.5249838467       -1.2399893566
