117

 C       -10.1707246040        1.1561286232        2.9055163542
 C       -10.7030714257        0.1615182280        1.9335324478
 O       -11.6594408193        0.4417065392        1.1642369815
 C       -10.0315696955       -1.2129230955        1.8552844538
 C        -9.8740660876       -1.5033838595        0.2670203572
 O       -10.8642542844       -1.7673987769       -0.3630091300
 C        -8.4361387381       -1.2626568897       -0.3739877273
 C        -7.8489970545        0.1358300112       -0.2326282743
 C        -8.6790283358        1.2661349220       -0.8062562188
 O        -9.7328085326        1.0978558552       -1.3408212551
 C        -7.8052566365        2.5574659645       -1.0968031241
 C        -7.0208580463        2.9928745236        0.2011585893
 O        -7.0269568999        2.3446358559        1.2276101458
 C        -6.0840956128        4.2403108720        0.0652663757
 C        -5.5540109186        4.6629356171        1.4388805680
 C        -4.5280801205        5.9497038694        1.2400912130
 O        -3.7647810831        6.0928107592        0.3187230165
 C        -4.5069409098        7.0135959033        2.3936289073
 C        -5.9461015313        7.6984692157        2.5765934013
 O        -6.9075133053        7.0378019060        2.9463839507
 C        -6.1610922912        9.2345504774        2.3535277387
 C        -7.6788794795        9.5805186556        2.6552620692
 C        -8.7269619620        9.4122478867        1.4489634107
 O        -8.2926118325        9.2205406199        0.3187636807
 C       -10.2714698678        9.4060979135        1.6106008521
 C       -10.6739477413        7.8922765004        1.5677448104
 O       -10.4820922222        7.1864953306        2.5511465875
 C       -11.3419898443        7.2577023476        0.4013420951
 C       -11.9865266683        5.8582495183        0.6094314126
 C       -12.2209681467        5.1839717786       -0.7772441873
 O       -11.4309304402        5.3679880175       -1.6970253058
 C       -13.5785808902        4.3679732340       -1.0284047550
 C       -12.8370226235        3.0491283938       -1.5252467845
 O       -12.6979429415        2.1465740722       -0.7373439515
 C       -12.1223847878        2.9674050264       -2.9012932666
 C       -13.1384792836        2.3659829136       -4.0480517445
 C       -13.1949982058        0.8014784342       -3.7664639916
 O       -12.1519567253        0.1995132683       -3.6585720673
 C       -14.6616643306        0.1493809513       -3.6546407998
 C       -14.7431773528       -0.7110575225       -2.2420736396
 O       -14.0302161541       -0.3959983592       -1.3635346392
 C       -15.9972884633       -1.5716565044       -1.9018591987
 C       -15.8175904240        1.1419986540       -3.6062112799
 C       -14.8260332239       -0.7932843878       -4.8667909316
 C       -14.2835557438        4.0561353144        0.2771776187
 C       -14.4170322020        5.1339796008       -2.0606787012
 C       -10.7249028807        9.9287083412        3.0104625969
 C       -10.8720017106       10.2992141660        0.5030451631
 C        -4.1709503078        6.1457009674        3.6758224385
 C        -3.4039424491        8.0832304047        2.1295693844
 C        -6.8654371031        2.1503245003       -2.2703341028
 C        -8.7368970452        3.7232747058       -1.5697966065
 C        -8.8413075545       -1.4265163123        2.7539886404
 C       -11.2270950832       -2.2031206481        2.4782322951
 H       -10.2233403928        2.1705698986        2.5400124253
 H        -9.0998415954        0.9141128277        3.0573696861
 H       -10.7046846852        1.1339100860        3.9436524320
 H        -8.5510583209       -1.6012104774       -1.3915539746
 H        -7.6756390484       -1.9504942965        0.0203129309
 H        -6.7841274160        0.2065171202       -0.5745545617
 H        -7.8111806894        0.3653162271        0.8485067342
 H        -6.6136712566        4.9828396425       -0.4531955691
 H        -5.3117608277        3.8532127419       -0.5461728615
 H        -5.0852466904        3.8897547319        2.0576881856
 H        -6.3741320512        5.1015815853        2.0678978217
 H        -5.9724599763        9.5376860240        1.2974796744
 H        -5.4265572954        9.7728579093        3.0350646689
 H        -7.7092320727       10.5796033558        3.1017417887
 H        -7.9993536522        8.8420106426        3.4164792003
 H       -10.5850992891        7.0696232724       -0.2934647912
 H       -12.1838459906        7.7819061122       -0.0077895913
 H       -12.9350902402        5.8166140661        1.1761356847
 H       -11.2441122266        5.2735142401        1.1324885951
 H       -11.2284233152        2.3633423527       -2.8707443073
 H       -11.7531301057        3.9454675409       -3.2893827585
 H       -12.6958910835        2.5707457058       -5.0051064968
 H       -14.1457175155        2.7559842933       -3.9315282349
 H       -15.8215360113       -2.2719746535       -1.1192870999
 H       -16.4430775127       -2.0610435740       -2.8048722548
 H       -16.6452738103       -0.7786957657       -1.5767556595
 H       -15.7989595105        1.7497909987       -4.5301389082
 H       -15.8912055636        1.8047444399       -2.7472866226
 H       -16.7312533611        0.5091401957       -3.6296310999
 H       -14.5724429654       -0.1520228045       -5.7418625446
 H       -15.8491955613       -1.1472324608       -5.0311179287
 H       -14.0573006178       -1.5257674369       -4.6229753621
 H       -13.6478843650        3.6090285540        1.0402421196
 H       -15.0250208214        3.3256110735       -0.0382434309
 H       -14.8218917695        4.8734057601        0.7419961750
 H       -13.8939899754        5.4639869909       -2.9547745236
 H       -14.7526347327        6.0898399088       -1.5362750384
 H       -15.2410576799        4.5871035948       -2.3904895583
 H       -11.7771428726        9.6659691504        3.2217110474
 H       -10.7095662398       10.9854377209        3.1347409081
 H       -10.1422860522        9.3668379491        3.7409071970
 H       -10.5873742469       10.0177183876       -0.5140422432
 H       -10.4092066418       11.2887019001        0.6296458324
 H       -11.9648918976       10.3258274824        0.5178827777
 H        -3.2263839374        5.6169644904        3.6957037859
 H        -5.0510982383        5.5549831002        3.9587998325
 H        -3.9985036150        6.7256433584        4.6323605306
 H        -2.4615353500        7.6332242008        1.8397091351
 H        -3.2386362155        8.8005910020        2.9170494221
 H        -3.6787194734        8.6611723160        1.2296214227
 H        -7.3499841900        1.5118432735       -2.9413311552
 H        -5.9344356621        1.6671951381       -1.9493920692
 H        -6.5735915982        3.0116964044       -2.8999188597
 H        -8.1158896675        4.6908534832       -1.6933101952
 H        -9.4241727556        3.9566052629       -0.7277768501
 H        -9.2799364160        3.3495867264       -2.4471531433
 H        -7.8886155436       -0.9331218132        2.5810535473
 H        -8.6642238534       -2.4711814537        2.7489176011
 H        -9.0613893278       -1.1846631343        3.8470533474
 H       -12.1200347909       -1.9767779244        1.9744190554
 H       -11.4050474256       -1.9476646118        3.5346093815
 H       -10.9286191736       -3.1898436092        2.3377116307
 Na      -11.7666745743       -0.0181533150       -1.2584942374
