117

 C       -10.3422960420        1.1588856207        2.9425245529
 C       -10.7701219327        0.1717771647        1.8888727519
 O       -11.7456305455        0.3451341417        1.2228605196
 C       -10.0699527667       -1.3422858699        1.8526112040
 C        -9.8426492416       -1.5768536448        0.3921412113
 O       -10.7321681866       -1.9172852186       -0.3608274764
 C        -8.4622604486       -1.3379156696       -0.2204173719
 C        -7.8601434073        0.0328647446       -0.1241176836
 C        -8.6309796385        1.2384356220       -0.7623173416
 O        -9.7663039441        1.2221478505       -1.2178677392
 C        -7.7418923122        2.5345983899       -1.0546575586
 C        -6.8303680931        3.0330047925        0.2101822814
 O        -6.8873473091        2.4207874153        1.2455554206
 C        -5.9232187487        4.2987563631        0.0730804031
 C        -5.5477398638        4.8754409308        1.4341991036
 C        -4.6154858725        6.0460753155        1.2064961890
 O        -3.9296578904        6.0482332852        0.2196485217
 C        -4.5169582650        7.1129024563        2.3312500597
 C        -5.9146472768        7.8400439920        2.5577478602
 O        -6.7676641890        7.0782264253        2.9473373078
 C        -6.2417538830        9.3229205618        2.3551797466
 C        -7.6892028541        9.6665188590        2.5460366568
 C        -8.6283679951        9.3923810179        1.3849559594
 O        -8.2617252917        9.1679832518        0.2638670022
 C       -10.2069831274        9.3519842674        1.7015659755
 C       -10.6595717512        7.8316074042        1.5931888892
 O       -10.5246019716        7.0769492638        2.5538291897
 C       -11.2050434023        7.3391316092        0.2109559089
 C       -11.9581405154        6.0134160335        0.5828103454
 C       -12.1926838159        5.3139424994       -0.7675789552
 O       -11.4040703658        5.4449383890       -1.6689496534
 C       -13.5034597354        4.3723564452       -0.9919142504
 C       -12.8577190948        3.0525302449       -1.4866318361
 O       -12.8013079693        2.1744756505       -0.6836148855
 C       -12.1799447600        2.9030253528       -2.8081391381
 C       -12.9994211507        2.3343276260       -4.0321061076
 C       -13.2715160197        0.8153571406       -3.7305233758
 O       -12.2822540668        0.0849153914       -3.7779600101
 C       -14.6753830540        0.0939763739       -3.6337942993
 C       -14.8710625984       -0.5870498133       -2.1899065067
 O       -14.0261123902       -0.5018836388       -1.3089543656
 C       -16.0693170538       -1.5345783354       -1.9144931719
 C       -15.8173819965        1.0982899390       -3.7390695436
 C       -14.6726783625       -0.9956502065       -4.7918688369
 C       -14.2994579140        3.9749486217        0.2368413891
 C       -14.3800109570        5.0427232195       -1.9984073319
 C       -10.7088829756        9.9573669908        3.0904269361
 C       -10.9680998897       10.1797758257        0.5759596633
 C        -4.0797625240        6.3082191498        3.5490464854
 C        -3.4689788785        8.1331227253        1.9678184408
 C        -6.9304923753        1.9719787069       -2.2052814745
 C        -8.6724032316        3.7185551370       -1.6206708717
 C        -8.8763214711       -1.3857571335        2.7686234453
 C       -11.2399290426       -2.1646080798        2.3945821554
 H       -10.7908018425        2.2243778181        2.8044132547
 H        -9.2828872155        1.1651761814        2.9898865318
 H       -10.6923594725        0.7858475459        3.8870152182
 H        -8.6538415018       -1.6569539501       -1.2623404029
 H        -7.7236558463       -2.0984469580        0.1071683842
 H        -6.8506949152        0.0432252517       -0.6342997130
 H        -7.6453142211        0.2943216226        0.9505819378
 H        -6.4325429655        5.0070689603       -0.6002634454
 H        -5.1006394301        3.8717352897       -0.4383699455
 H        -4.9909435339        4.2370888741        2.0908664929
 H        -6.4129297606        5.2559991094        2.0338273704
 H        -5.9083723980        9.7378470422        1.3957863834
 H        -5.6154577717        9.8130899050        3.2011552771
 H        -7.7566183005       10.7098384061        2.8327384939
 H        -8.0219896099        9.0544667418        3.4207005146
 H       -10.3706905723        7.1245250333       -0.4695957649
 H       -12.0640960820        7.8026717824       -0.1819170608
 H       -12.8292866094        6.1827172595        1.1409541760
 H       -11.2892591348        5.3370160655        1.1222173167
 H       -11.2418623722        2.2844822013       -2.7213518680
 H       -11.8017310983        3.8334030517       -3.1775953179
 H       -12.2128098506        2.4135305416       -4.8514115488
 H       -13.8945433507        2.8883278957       -4.2632656949
 H       -15.6474768796       -2.3721604526       -1.2168827303
 H       -16.4326368860       -1.9676830776       -2.7876776947
 H       -16.8313775799       -0.9769477598       -1.4024007656
 H       -15.9176954358        1.5616103189       -4.7397154587
 H       -15.6034019941        1.8906439637       -3.0124194761
 H       -16.8133804983        0.6394814953       -3.4230894038
 H       -14.7558803243       -0.3811103015       -5.6785452522
 H       -15.6258608359       -1.5060401493       -4.7554907544
 H       -13.7427462375       -1.6106568311       -4.6921804633
 H       -13.7119956284        3.7367802407        1.0972627981
 H       -14.8571097418        3.0664148495       -0.0987964332
 H       -14.9865654377        4.6849111368        0.5353339878
 H       -13.9953378311        5.1885884085       -2.9902266428
 H       -14.6761972936        5.9887925997       -1.6047622468
 H       -15.2843714761        4.4449580607       -2.1273554866
 H       -11.7063491839        9.7374508343        3.1579588571
 H       -10.7636561333       11.0047353078        3.0863121575
 H       -10.2267539087        9.5077516707        3.9727146741
 H       -10.7326808784        9.9320358841       -0.4428401655
 H       -10.6234910050       11.1905217299        0.6633008894
 H       -12.0213828783       10.0542706966        0.6678203807
 H        -3.1289470486        5.8943584305        3.4636100135
 H        -4.8556151180        5.5539259401        3.9337602968
 H        -3.8865048307        6.8955361769        4.4195590862
 H        -2.4887143278        7.7390139806        1.5769904665
 H        -3.3321659094        8.8719139757        2.6801341217
 H        -3.8434933372        8.5987453327        1.0624368157
 H        -7.4844331587        1.2061009940       -2.7359605110
 H        -5.9557179219        1.5591920122       -1.9353114186
 H        -6.7455384126        2.7073727845       -3.0024250749
 H        -7.9736076438        4.5204868504       -1.9591015246
 H        -9.2966665717        4.1853220453       -0.8465175532
 H        -9.2897376926        3.2219152410       -2.4357160501
 H        -7.9757954502       -0.8758711104        2.4089352657
 H        -8.5582278016       -2.3686526416        3.0032865552
 H        -9.0861610108       -0.8982940095        3.7092291408
 H       -12.1726119658       -1.9597610388        1.7358443511
 H       -11.4285415033       -1.7898758380        3.3912543296
 H       -10.9839265381       -3.2541649774        2.3601851147
 Na      -11.8841073972        0.0992246522       -1.3265140156
