117

 C       -11.2967885457       -0.1319740202        4.1418452907
 C       -11.2662064550       -0.4256470812        2.6862594707
 O       -11.8465494404        0.3284890331        1.9396131990
 C       -10.3853428165       -1.7147460818        2.2475461182
 C        -9.6055023257       -1.4032027346        0.9262828116
 O       -10.2202778359       -1.5318005053       -0.1306686485
 C        -8.0651010329       -1.1857975696        0.9310164418
 C        -7.7633159596        0.2956008578        0.8700686849
 C        -8.4050774353        1.2382341446       -0.2605853544
 O        -9.5392696574        1.2975196555       -0.5963298225
 C        -7.3234430186        2.2972012981       -0.8557773077
 C        -6.7885618241        3.2419538013        0.3706841317
 O        -7.2373823972        3.1276337300        1.4928459154
 C        -5.5745219731        4.1700144918        0.0311477289
 C        -5.8600970752        5.5353154948        0.6957370723
 C        -5.0307842351        6.6501467715        0.0391386169
 O        -4.9224137103        6.7662552258       -1.1555268886
 C        -4.3581863416        7.7006385071        0.9112170320
 C        -5.5200772906        8.3768922149        1.7387754414
 O        -5.8907322719        7.7280282834        2.7063574813
 C        -6.2090172738        9.7257222812        1.3233477184
 C        -7.5734412053       10.0227753972        1.9156836712
 C        -8.6757198214        9.0367607051        1.4191590852
 O        -8.4756074209        8.0961633305        0.6905546268
 C       -10.1310321896        9.2668556220        1.9975395662
 C       -11.0593841737        7.9765737563        1.7098183229
 O       -11.8228378636        7.5321163634        2.5663303324
 C       -11.1403286238        7.3309253140        0.2697212450
 C       -12.2578043865        6.3008383564        0.3151210425
 C       -12.2010359364        5.4261049692       -0.9585016182
 O       -11.1975507181        5.3887194968       -1.6184315686
 C       -13.5003804916        4.5528670260       -1.3705487458
 C       -13.0235941186        3.1385799722       -1.7343177168
 O       -12.9154419402        2.3152935200       -0.8429351238
 C       -12.6157389422        2.8495095117       -3.1407527914
 C       -13.5938591970        1.9387022355       -3.9352979091
 C       -13.2207420086        0.4323067266       -3.4977742090
 O       -12.1183575527        0.1515570421       -3.0102515894
 C       -14.3395572210       -0.7139641165       -3.5291647952
 C       -15.0696245561       -0.7163394437       -2.1136793979
 O       -14.4347683358       -0.4341251277       -1.1007071442
 C       -16.5482312113       -0.8247011159       -2.1322212722
 C       -15.3110295221       -0.6502409774       -4.7046399403
 C       -13.6302810676       -2.0718874401       -3.4939974308
 C       -14.5155894618        4.4165942775       -0.1923408072
 C       -14.1841122066        5.2740745926       -2.5080678342
 C       -10.0384086706        9.6054092279        3.4794390785
 C       -10.8501458862       10.3864149132        1.1464004503
 C        -3.3319913837        7.0487268380        1.9225778723
 C        -3.5495129980        8.7800877861        0.1214118079
 C        -6.1665333526        1.6810873346       -1.5164159955
 C        -8.0923594993        3.1877731271       -1.9438519011
 C        -9.4490289972       -2.1939699702        3.3667254143
 C       -11.5175408417       -2.8233305172        2.0440535993
 H       -11.9502898572        0.7519160589        4.4613366388
 H       -10.3579694628        0.1888532625        4.4883569813
 H       -11.5452444473       -1.0488187257        4.7326672584
 H        -7.6624209808       -1.6089410015        0.0292980964
 H        -7.6376340012       -1.6293742627        1.8037881998
 H        -6.6991448240        0.4866097191        0.8958141983
 H        -8.0493329396        0.8299428773        1.7884498204
 H        -5.4416811935        4.2434815066       -1.0141729497
 H        -4.7091489129        3.7239384846        0.4929136453
 H        -5.6849832703        5.6485891286        1.8148755371
 H        -6.9118500896        5.8228883836        0.5259486785
 H        -6.3102665838        9.7284683202        0.2015417201
 H        -5.5649724125       10.5138516340        1.6529691793
 H        -7.8284514001       11.0697733020        1.6657150160
 H        -7.4563191141       10.0135477030        2.9945884129
 H       -10.2434385367        6.8804717102       -0.0484961584
 H       -11.1981573846        8.0477410450       -0.5391189894
 H       -13.1430753184        6.9766063581        0.4961288510
 H       -12.2845836028        5.5539727079        1.1528439346
 H       -11.6638870403        2.3332953471       -3.1302166961
 H       -12.4545656153        3.8770954637       -3.5750600089
 H       -13.4216589969        2.0899716759       -4.9710423748
 H       -14.6494886331        2.1289743271       -3.7393500718
 H       -16.9512743550        0.1186909493       -2.6636814244
 H       -16.9659460598       -0.8307193724       -1.1417656590
 H       -16.8610245946       -1.6487115197       -2.7036687457
 H       -14.8197943087       -0.8650358629       -5.6560846564
 H       -15.8294513490        0.3101977964       -4.8423541815
 H       -16.0825061990       -1.3898098560       -4.5928822339
 H       -12.9737254481       -2.1395062205       -4.3763433153
 H       -14.3695928330       -2.8976726630       -3.4558239998
 H       -13.1151306855       -1.9631617416       -2.5447359094
 H       -14.0299233102        3.8498676582        0.6144870676
 H       -15.2798228573        3.8112140197       -0.6051570366
 H       -14.9917086697        5.3514300287        0.1654314164
 H       -13.5612148502        5.5312634847       -3.3530617025
 H       -14.5384487789        6.2699957755       -2.1080525153
 H       -15.0026214082        4.6767377694       -2.8593444135
 H       -11.1188955812        9.6201514818        3.8124050171
 H        -9.5763484500       10.5564014286        3.7493124617
 H        -9.5409389630        8.7289647399        3.9403149819
 H       -11.2873816292        9.9929215018        0.2349605552
 H       -10.1566773756       11.1510426816        0.7982821197
 H       -11.6301784483       10.8690388347        1.7482623395
 H        -2.4723883909        6.6112329954        1.4630384834
 H        -3.8582724788        6.3092418728        2.5822187267
 H        -2.9372920208        7.7505917048        2.6673367368
 H        -2.9019690239        8.1876541571       -0.5101667413
 H        -2.8480423762        9.2438332994        0.8605235655
 H        -4.1844995344        9.5085905601       -0.4286992400
 H        -6.4959857410        1.4141100706       -2.5206440331
 H        -5.8283816192        0.7736253957       -0.9889971468
 H        -5.3126339704        2.3604026260       -1.5787806817
 H        -7.4860014789        3.9508727749       -2.4276180595
 H        -8.7869986115        3.7296101973       -1.3843717302
 H        -8.5726675566        2.6255247797       -2.6689679083
 H        -8.9243792087       -1.3654744600        3.8046713857
 H        -8.7261742210       -2.8844798154        2.9332904341
 H       -10.0288839201       -2.7649949662        4.1340751773
 H       -12.2180560475       -2.3788384670        1.3561851373
 H       -12.1550525672       -2.9178982862        2.9377780663
 H       -11.1309047827       -3.7377948697        1.7169536996
 Na      -11.7539683953        0.3101911886       -0.5172102542
