117

 C       -11.6636482670       -0.5464733655        4.3446552836
 C       -11.5538167740       -0.7162944105        2.8246804201
 O       -12.2153602786        0.0750612263        2.1256910744
 C       -10.7664331493       -1.9198945279        2.1260968837
 C        -9.9713327929       -1.4241028942        0.8631490293
 O       -10.3491906867       -1.5743777382       -0.2581948226
 C        -8.6780417537       -0.7018393976        1.0488412994
 C        -8.7565114892        0.8212987341        1.3125990216
 C        -8.8384244136        1.5986049412       -0.0453838710
 O        -9.8958217965        1.7258133439       -0.6528133918
 C        -7.5896995946        2.3116852774       -0.6640366691
 C        -7.1875551854        3.6632548933        0.2408043409
 O        -7.7442542777        3.9166070604        1.2651099343
 C        -6.4311511833        4.7378821131       -0.5214409680
 C        -5.8579436133        5.7665150827        0.4150423554
 C        -5.0882666759        6.7794456342       -0.4416260305
 O        -5.1316657650        6.7347646478       -1.6448666506
 C        -4.2143298637        7.8816017250        0.1644383271
 C        -5.1967750679        8.7638122833        1.0676264648
 O        -4.9673742207        8.9374107792        2.2533360028
 C        -6.5153286349        9.3059835404        0.3932984863
 C        -7.6181940583        9.5888265609        1.4112993430
 C        -8.8007907575        8.5850260719        1.5210173470
 O        -8.6736828317        7.3962022759        1.2361163236
 C       -10.2065190399        9.1750998848        1.9053939148
 C       -11.2307536658        8.0060260819        1.6673551333
 O       -11.8776216997        7.5548783182        2.6003319866
 C       -11.3385326121        7.4429033908        0.2705639667
 C       -12.5068167849        6.5738593663       -0.0030016944
 C       -12.3073115414        5.4701303218       -1.0262113412
 O       -11.2513194862        5.2795082664       -1.5673221338
 C       -13.4948510792        4.5879692108       -1.4524171711
 C       -12.8963122850        3.1596806221       -1.5112110488
 O       -13.0476654981        2.4128928789       -0.5525070683
 C       -12.2253310032        2.7059966603       -2.7856487341
 C       -13.1072507378        1.5746209734       -3.3414151549
 C       -12.4457374771        0.1972899634       -2.9504887077
 O       -11.2918168571        0.0553949995       -2.6968391002
 C       -13.4126074383       -0.9901120853       -2.7728212478
 C       -14.3559353943       -0.7883040547       -1.6107025986
 O       -13.9993711439       -0.4185485566       -0.5408553488
 C       -15.8357622284       -0.8809860547       -1.9068485189
 C       -14.1454209585       -1.3004923345       -4.0578007333
 C       -12.6589699266       -2.2490163227       -2.2580578905
 C       -14.7301780076        4.6674769306       -0.4988041347
 C       -13.9220044149        5.0106528722       -2.8831651530
 C       -10.1344043018        9.5563647790        3.4192243637
 C       -10.5496924065       10.4957897397        1.2098055537
 C        -3.0638639767        7.3334612656        0.9993269491
 C        -3.5933219506        8.7958636617       -0.9442821133
 C        -6.3990539177        1.2533940756       -0.8532117689
 C        -8.0581622686        2.7721210190       -1.9991218389
 C        -9.7778821253       -2.6013420537        3.1720815028
 C       -11.8996287626       -2.8710216336        1.8514003141
 H       -11.8234908580        0.4616740355        4.5866793602
 H       -10.8191742665       -0.9639760068        5.0034430651
 H       -12.5895444624       -1.0419968263        4.6523132039
 H        -7.9894544770       -0.8106247332        0.2389495875
 H        -8.1021327195       -1.1245869808        1.8555108680
 H        -7.8967588472        1.1404848387        1.9182504167
 H        -9.6990796942        1.0293426697        1.7906732457
 H        -7.2305840410        5.1305158119       -1.1544556937
 H        -5.7780530188        4.2443742524       -1.2293073105
 H        -5.3619377513        5.2713994462        1.2499265059
 H        -6.6963725358        6.3988755299        0.9118931108
 H        -6.8915774027        8.5852592928       -0.2560146077
 H        -6.3107123333       10.1339852696       -0.2854636015
 H        -7.9964557549       10.5806726617        1.2452471513
 H        -7.0936626040        9.5761210170        2.3896693755
 H       -10.4830177129        6.8329264384        0.0014205779
 H       -11.4496120010        8.2429599653       -0.4277024874
 H       -13.4516681314        7.0648711004       -0.4445036341
 H       -12.9451020367        6.0692913134        0.9207003256
 H       -11.2400227132        2.1809668670       -2.6430526420
 H       -11.9387221581        3.4923371746       -3.4676315897
 H       -12.9817262583        1.6123063429       -4.4211973604
 H       -14.1846204810        1.6937244642       -3.1174428482
 H       -16.2848381867       -0.6774616094       -1.0143923322
 H       -16.1846396273       -1.8268935189       -2.3448429685
 H       -16.0861277876       -0.0744637962       -2.6255842852
 H       -13.5260107980       -1.0655974801       -4.9393235924
 H       -15.0178123480       -0.6618218068       -4.1610115263
 H       -14.5493861617       -2.3476957234       -4.0425526553
 H       -11.6666299962       -2.2152919567       -2.7265331706
 H       -13.3136952191       -3.1269072044       -2.4920189832
 H       -12.5014053695       -2.1178373741       -1.1646925146
 H       -14.5758053943        4.5947150016        0.5501058310
 H       -15.3304399232        3.7959498943       -0.8511730915
 H       -15.3193248864        5.4994598839       -0.7786966671
 H       -13.0510096832        4.9253313771       -3.5363262850
 H       -14.2525359559        6.0111779443       -2.9296295529
 H       -14.7280413926        4.3798638367       -3.2599329242
 H       -11.1367363991        9.6832958659        3.7447594914
 H        -9.5414838959       10.4690340953        3.5373642185
 H        -9.6867337217        8.8598806343        4.0476441083
 H       -10.8887782060       10.3183374940        0.1929885655
 H        -9.8004146040       11.2551393235        1.3614910570
 H       -11.4250598553       10.8894163744        1.7183566290
 H        -2.2215367214        7.1898500123        0.2707827287
 H        -3.2745762910        6.3946486579        1.3550699603
 H        -2.7730226619        8.0055204704        1.7685547157
 H        -3.0275873547        8.0111756370       -1.4839206429
 H        -2.9927560308        9.6351296626       -0.5859197015
 H        -4.4114703804        9.1305536354       -1.5758347324
 H        -6.6292142830        0.4940240399       -1.5917002135
 H        -6.3361163412        0.8015024125        0.1318766332
 H        -5.4398632346        1.7289041288       -1.0904743526
 H        -7.3296954559        3.4136718186       -2.4371895882
 H        -8.9993071823        3.3412787551       -1.8831220711
 H        -8.2805678350        1.9938758445       -2.7601214313
 H        -8.9280445044       -1.9436832525        3.3552351349
 H        -9.3900073344       -3.4952526754        2.7076076374
 H       -10.2001826294       -2.8473022757        4.0966692512
 H       -12.6461815090       -2.4357461752        1.1666337547
 H       -12.3202496386       -3.2191578583        2.8544681539
 H       -11.6404069628       -3.8714610686        1.3430821242
 Na      -11.8735452443        0.4608630231       -0.1932920974
