117

 C       -12.0526054731       -0.4275798663        4.7501490464
 C       -11.7213105161       -0.6443508851        3.3263658079
 O       -12.3105364089       -0.0843193391        2.4324678518
 C       -10.6346254993       -1.7017597020        2.7719595348
 C        -9.6688419096       -0.8947909587        1.8167800652
 O        -9.7420276587       -0.9104726952        0.6005895117
 C        -8.6113421592        0.0409895647        2.5127578159
 C        -8.7327278701        1.5251492418        2.1593688018
 C        -8.9922507809        1.8742551593        0.6808850297
 O       -10.0464104610        2.0284658050        0.1827197036
 C        -7.7246569561        2.1408786834       -0.2521659418
 C        -7.0988953010        3.5295202602        0.2408627791
 O        -7.1537441291        3.8694641421        1.4172081289
 C        -6.4815280010        4.5093765090       -0.7774253326
 C        -5.8076297055        5.6907622898       -0.0674686511
 C        -5.4584898423        6.8259202400       -1.0761366682
 O        -6.0128707962        6.8029169604       -2.1704229988
 C        -4.5512985556        7.9413856694       -0.5802043094
 C        -5.5316479508        8.6009030846        0.5028441145
 O        -5.4007765115        8.3969696647        1.6684444328
 C        -6.3866809781        9.7487992693       -0.1096245082
 C        -7.6988181125       10.1024946939        0.6732082415
 C        -8.6089477098        8.8123171140        0.7640408260
 O        -8.2520307587        7.7499822968        0.2843151698
 C        -9.9776541703        8.9545532287        1.5009829158
 C       -11.0629506911        7.8447615183        1.3833749600
 O       -11.8323120700        7.6206178794        2.2652797527
 C       -11.1033086888        7.0593052795        0.0913020861
 C       -12.4015059858        6.2233119694        0.0622693569
 C       -12.5943677907        5.5830207011       -1.3541150204
 O       -11.7823268868        5.7792657129       -2.2410753875
 C       -13.7435567375        4.5560962016       -1.5299254951
 C       -13.0393343214        3.2386297585       -1.4185593610
 O       -13.0273518231        2.6440585432       -0.3295150652
 C       -12.1846359518        2.7190965668       -2.5985158155
 C       -12.7422885899        1.4593039946       -3.3528463507
 C       -12.3196395739        0.1811481940       -2.6963063391
 O       -11.3423042539       -0.0066143119       -1.9798665563
 C       -13.1573572759       -1.1578042535       -2.9262700893
 C       -14.0590885772       -1.4084460647       -1.6702645809
 O       -13.9495124716       -0.7009742292       -0.6919197363
 C       -15.0846860128       -2.5420736349       -1.6348755245
 C       -14.0620297144       -1.1032349669       -4.2386723191
 C       -12.0108531470       -2.2593037747       -3.1080968451
 C       -14.8209101754        4.7524277174       -0.3886791260
 C       -14.4496546990        4.9118020427       -2.9361598989
 C        -9.6118019018        9.1169411004        3.0673211619
 C       -10.7819886139       10.2740161223        1.1248696448
 C        -3.3570920488        7.3964396165        0.2101237953
 C        -4.0479173047        8.7323243723       -1.7709062597
 C        -6.8628960690        0.8904341033       -0.1051876122
 C        -8.0774116843        2.2794778248       -1.7847431133
 C        -9.7483441480       -2.5215691056        3.7760169065
 C       -11.4689941034       -2.7035785612        1.9727903669
 H       -12.2798600819       -1.4240956131        5.2154817477
 H       -12.8800875779        0.2575169501        4.8839915265
 H       -11.1938205921       -0.1400693646        5.3342183061
 H        -7.6321947883       -0.4467820442        2.3364794006
 H        -8.8083293788        0.0359657039        3.5923390970
 H        -7.9101828953        2.2110582703        2.4654369372
 H        -9.5268958979        1.9757318524        2.7585250262
 H        -7.2600577493        4.8696146006       -1.4762477129
 H        -5.6801059538        3.9891864072       -1.3256145730
 H        -4.9755504983        5.4420492763        0.4960479677
 H        -6.5835904206        6.1279581904        0.5652774105
 H        -6.6944185944        9.4964548983       -1.1218663576
 H        -5.7312761786       10.7165258770       -0.1344194393
 H        -8.2623007434       10.9186007351        0.2450253830
 H        -7.4392880067       10.4737238644        1.6922263700
 H       -10.1396450318        6.4601434524       -0.0074947634
 H       -11.0003613818        7.8179155994       -0.6866432547
 H       -13.0766173534        7.0128304486        0.2039610381
 H       -12.4745205554        5.4847654654        0.8413368699
 H       -11.2054103783        2.3836852518       -2.2086893521
 H       -12.1436640851        3.4773310742       -3.3284740239
 H       -12.3319618819        1.4689940362       -4.3527529162
 H       -13.8228091837        1.4890999928       -3.4388459463
 H       -15.0144404760       -3.0777266246       -0.6500868826
 H       -14.9478496328       -3.2867241640       -2.4410176760
 H       -16.0481075109       -2.0969854722       -1.7222131247
 H       -13.3864773427       -0.8285794472       -5.0821822676
 H       -15.0043829819       -0.4817747690       -4.1970437924
 H       -14.4386614058       -2.0912713875       -4.4317211899
 H       -11.4651187635       -2.1051043523       -4.0648430874
 H       -12.5253313723       -3.2536886421       -3.1191096955
 H       -11.3897365546       -2.0964670068       -2.2241858682
 H       -14.3657544828        4.6814086987        0.5775968622
 H       -15.5985569950        4.0293393228       -0.4247271183
 H       -15.2562658883        5.7681365681       -0.4324682714
 H       -13.9107352076        5.6617487932       -3.4409162366
 H       -15.4799597289        5.1125359664       -2.7935078889
 H       -14.4739449985        4.0360281705       -3.6133778628
 H       -10.5126760391        9.4804907029        3.5921587676
 H        -8.9492762879        9.9019080070        3.3278670580
 H        -9.3004545489        8.1475100816        3.5188988449
 H       -11.0511827801       10.1864190174        0.0925949977
 H       -10.1765287076       11.1428952103        1.2993243691
 H       -11.7398601142       10.3525284036        1.5664166641
 H        -3.1116808523        6.3971331728       -0.0597245875
 H        -3.8025633548        7.3659368822        1.2580611456
 H        -2.4918264233        8.0862509820        0.1593864791
 H        -3.3574039948        8.1489373657       -2.3084112296
 H        -3.6003458215        9.6858743463       -1.3654536628
 H        -4.7778074875        8.9293614702       -2.5745763695
 H        -7.3282106262        0.0492252036       -0.6935213879
 H        -6.8047521983        0.5655811854        0.9161593712
 H        -5.8966363597        0.9814985584       -0.5332228419
 H        -7.2302282932        2.5126156643       -2.4117044521
 H        -8.7689556694        3.0390932736       -1.9119341491
 H        -8.5539989149        1.4299165689       -2.1366567235
 H        -9.2185865016       -1.9614338396        4.4950758873
 H        -8.9813333207       -3.0405040895        3.1619364115
 H       -10.2922560189       -3.2890681640        4.2764357390
 H       -12.1003611973       -2.2265254633        1.2051345842
 H       -12.1472144387       -3.2035521168        2.5807881198
 H       -10.8497847065       -3.4678626054        1.5639285529
 Na      -11.9899756170        0.6895009971        0.2453842334
