117

 C       -13.1188190758       -0.5716851476        4.7150939139
 C       -12.2495437766       -0.2633049712        3.4916543001
 O       -12.6069151938        0.4421550310        2.5492225640
 C       -10.9007217786       -0.9981184381        3.3816979035
 C        -9.7524851767       -0.0597113201        2.6950797768
 O        -9.3600423282       -0.2826873857        1.5756115527
 C        -9.3173143968        1.2060013341        3.4681000366
 C        -8.4460770752        2.1515443021        2.5952159659
 C        -8.7337991406        2.0837175725        0.9995520444
 O        -9.8653249886        2.2958522718        0.6178344648
 C        -7.4761204880        1.8321961982        0.1471279381
 C        -6.5329804210        3.1488503022        0.2679075881
 O        -5.8145784632        3.2135063705        1.2294895239
 C        -6.4353725197        4.2443974465       -0.8137447555
 C        -5.7248942769        5.4967576144       -0.2725808605
 C        -5.4505743756        6.4674993568       -1.4079177133
 O        -5.6392936953        6.1485227531       -2.5576339332
 C        -4.8457607141        7.8746832538       -1.1208722192
 C        -5.9514505882        8.5408349319       -0.2698689261
 O        -6.1871808390        8.1160101899        0.8652676095
 C        -6.7169837841        9.7678971062       -0.7588060369
 C        -7.8647752839       10.1182027709        0.2284112637
 C        -9.0256533953        9.1254206775       -0.0015673348
 O        -9.2146765701        8.5288697462       -1.0470415621
 C       -10.0668680708        9.0360926111        1.2168382048
 C       -10.7391080650        7.6269484942        1.0967351534
 O       -10.2952690031        6.6563454094        1.7257665602
 C       -11.8541632259        7.4539652373        0.1139209294
 C       -12.4796665395        6.0771494697        0.2101704879
 C       -13.0572900132        5.5744874676       -1.1490326874
 O       -12.5579417952        5.9173999003       -2.1957062715
 C       -13.9865390897        4.3484339744       -1.1028047987
 C       -13.0409340040        3.1414516510       -1.0458755833
 O       -12.8907353967        2.5682200995        0.0217349860
 C       -12.2871808350        2.7256885364       -2.3334695690
 C       -12.9203866244        1.6445710249       -3.1983525570
 C       -12.2212081009        0.2651159528       -2.8519627704
 O       -11.1552035766        0.2799233112       -2.2157044060
 C       -12.9586447313       -1.0527436338       -3.1302062073
 C       -13.1833924888       -1.8245481481       -1.7494385894
 O       -12.6720383047       -1.4315945335       -0.7030484824
 C       -14.2025263306       -2.9228239613       -1.7137471380
 C       -14.1623937667       -0.9969990821       -4.0000916912
 C       -11.9348306128       -1.9615486560       -3.8033804703
 C       -14.9822187541        4.1773459124        0.1626194604
 C       -14.8673210957        4.1811338478       -2.4014861291
 C        -9.3758753280        9.1905784540        2.5872855259
 C       -11.0156856210       10.2172343393        0.9580848474
 C        -3.5109868710        7.6674383948       -0.3545359720
 C        -4.4992652982        8.4717158991       -2.5101909415
 C        -6.6249434549        0.5641460006        0.5267632650
 C        -7.9778712001        1.6136209968       -1.3337277567
 C       -10.4251541129       -1.7118383051        4.6774020824
 C       -11.2453955724       -2.2262247524        2.3684971329
 H       -13.5296900106       -1.5610764973        4.5754587304
 H       -13.9966951462        0.1708506967        4.8355166956
 H       -12.6068554226       -0.5864454775        5.6122086502
 H        -8.7655443792        1.0257751140        4.4267625934
 H       -10.2232677047        1.7505385525        3.8545073196
 H        -7.4344240413        1.7594021501        2.6709430240
 H        -8.5986416420        3.1492829408        2.9688946520
 H        -7.4487393843        4.5390517608       -1.1392706315
 H        -6.0220096308        3.7158071426       -1.6618748130
 H        -4.7708391811        5.2540028865        0.1544469171
 H        -6.2927756680        6.0060849175        0.5725558413
 H        -7.0728673142        9.5868680924       -1.7378180404
 H        -6.0451891381       10.6563101484       -0.8934149508
 H        -8.3182617021       11.1193121629        0.0760834939
 H        -7.4351106490       10.0014888489        1.2631399075
 H       -11.3412322783        7.6297754895       -0.8448276926
 H       -12.5518188853        8.2263424876        0.2528151510
 H       -13.1674430144        5.7669645920        1.0411208536
 H       -11.6031972431        5.4517049103        0.5124652134
 H       -11.3110365382        2.3505212414       -2.0212030386
 H       -12.0171492414        3.5235052091       -2.9507855994
 H       -12.7048020094        1.7944683392       -4.2793501019
 H       -14.0314158954        1.4419269767       -3.1635194029
 H       -14.1530157472       -3.3987151341       -0.7986998777
 H       -13.9752902398       -3.7066515728       -2.5290716002
 H       -15.2000679038       -2.5118238066       -1.9232075164
 H       -14.0354921248       -0.3770265166       -4.9184965543
 H       -15.0347565283       -0.5459162342       -3.4123084512
 H       -14.5149773005       -1.9747025744       -4.3080801126
 H       -11.7491299715       -1.4867920827       -4.7698037910
 H       -12.3434344710       -2.9669726535       -3.9693058389
 H       -11.0995736784       -2.0007385356       -3.0928638989
 H       -14.4780308296        4.1287825676        1.1142469966
 H       -15.5333580353        3.2756837842        0.0940081562
 H       -15.7285217618        4.9814450537        0.2250215080
 H       -14.3441700169        4.5291234450       -3.2604854127
 H       -15.7589432867        4.7912983725       -2.3028197412
 H       -15.1271800036        3.1454644723       -2.6652282888
 H        -9.9792146900        9.1207254351        3.5225748880
 H        -8.8689542248       10.1238907145        2.6104134120
 H        -8.5291050990        8.4140764043        2.7516261152
 H       -11.3420270450       10.3671673811       -0.0669014549
 H       -10.4703168998       11.1258215364        1.1714016501
 H       -11.8291413083       10.1450019464        1.6496320259
 H        -2.8414394287        7.0663193188       -0.8953838397
 H        -3.8863509290        7.1459940248        0.6055285088
 H        -3.0993492715        8.6653947314       -0.0905718250
 H        -3.6619531216        7.9636742851       -2.9423262080
 H        -4.2569381767        9.5546767018       -2.5887439277
 H        -5.2642908238        8.3473804188       -3.2917815693
 H        -7.2275153814       -0.3733492805        0.3839233769
 H        -6.2951287218        0.5817718456        1.5558328457
 H        -5.7488996065        0.4889873585       -0.0741648095
 H        -7.1472779571        1.7410224562       -1.9399152430
 H        -8.7109127545        2.3104902341       -1.6034773208
 H        -8.3592634172        0.6413695302       -1.4403275098
 H       -10.3893342181       -1.0234632912        5.4704643821
 H        -9.4705688279       -2.2637549794        4.5779301808
 H       -11.1600347939       -2.4359599186        4.9840983365
 H       -11.6679876265       -1.9399236391        1.4773033444
 H       -11.9566508171       -2.7992581171        2.8293161395
 H       -10.3392074529       -2.7696002524        2.1558983457
 Na      -11.4841047822        0.5453732617        0.3031259649
