117

 C       -12.3097203753       -0.0716583451        4.7859882753
 C       -12.0402947996       -0.4372425121        3.3799153290
 O       -12.6721125666       -0.1015159647        2.3913332114
 C       -10.7101807213       -1.4009519418        3.0117713964
 C        -9.8055173711       -0.4508906449        2.2651328405
 O        -9.6631974377       -0.4493139982        1.0835162747
 C        -9.0697570368        0.6201960831        3.1567769152
 C        -8.6641971444        1.9926901904        2.5209865500
 C        -8.8079184338        2.0855613608        0.9896081387
 O        -9.8821136203        2.2665371831        0.4719546588
 C        -7.5636658485        1.9697178567        0.0079229808
 C        -6.6177023850        3.2405543424        0.5041588865
 O        -6.3629703121        3.4013567698        1.6803954639
 C        -6.1919956838        4.1598676072       -0.6669754254
 C        -5.2884521334        5.3501882671       -0.2750768015
 C        -5.4992849466        6.5384753894       -1.3110614727
 O        -6.0816780504        6.3762370289       -2.3679198870
 C        -4.7936159754        7.9137871105       -0.9626120470
 C        -5.8323699769        8.6680174976       -0.0002361971
 O        -6.1374269128        8.1779349981        1.0573358179
 C        -6.6212879363        9.8795288931       -0.5968307228
 C        -7.8191367410       10.1900902035        0.3946969473
 C        -8.9067400371        9.1111282259        0.2641602855
 O        -8.7019595254        8.1812365575       -0.4977820366
 C       -10.0777228109        9.0907570508        1.2876553102
 C       -10.8005785447        7.7312055441        1.2462107058
 O       -10.7726415911        6.9232721707        2.1411627661
 C       -11.5074856080        7.4264225245       -0.0914517712
 C       -12.3278537660        6.1953129621        0.0982552305
 C       -12.8130621646        5.6839548080       -1.3338301050
 O       -12.3264343190        6.2112575708       -2.3177216387
 C       -13.9339634470        4.4624558552       -1.3295632168
 C       -13.1160994033        3.1716512081       -1.1859192723
 O       -13.3568032114        2.4347033721       -0.2250812609
 C       -12.2033552440        2.7637679525       -2.3450523013
 C       -12.6808091002        1.6173232422       -3.1749834040
 C       -12.2737838739        0.1642422616       -2.6821900501
 O       -11.2540848344        0.0297795702       -2.0593881702
 C       -13.0048942921       -1.1292478301       -3.0363040703
 C       -13.4513468370       -1.7406301926       -1.6362784862
 O       -12.9515150715       -1.4807344034       -0.5790198675
 C       -14.5677194127       -2.7621443744       -1.6671007249
 C       -14.2136711679       -0.9088374214       -3.9562739572
 C       -12.0565406048       -2.1641522097       -3.7021903537
 C       -14.8647529805        4.5300342598       -0.1506985224
 C       -14.7003796172        4.5239734145       -2.6466666454
 C        -9.3962747430        9.3218655493        2.6746493202
 C       -11.0457437743       10.2050620993        1.1130327541
 C        -3.4577379094        7.4708351376       -0.1847007860
 C        -4.4079111103        8.6594807093       -2.1943044541
 C        -6.7628889948        0.6885050109        0.3334420827
 C        -8.1254527912        1.9097516062       -1.4426483296
 C       -10.0742387599       -1.9170918253        4.3096868190
 C       -11.1690813941       -2.6091096975        2.2477137539
 H       -11.8935128212       -0.8143283437        5.4348432165
 H       -13.4316271593       -0.1060645768        5.0010315355
 H       -11.9161898266        0.8604524863        5.0578585111
 H        -8.2308612745        0.2007842278        3.7366774853
 H        -9.7574148540        0.9146036209        3.9724374515
 H        -7.5963431529        2.1602223574        2.7466694886
 H        -9.2315769696        2.8294798133        2.9039766323
 H        -7.1356822855        4.4932866894       -1.1506427337
 H        -5.6476436800        3.5613941911       -1.3834306743
 H        -4.2430276342        5.0302047051       -0.3111372040
 H        -5.4423023992        5.8141346287        0.7846473304
 H        -7.0875001266        9.5663481636       -1.4670961229
 H        -6.0350762453       10.7564840239       -0.8600349478
 H        -8.3319214888       11.1073634775        0.0622304829
 H        -7.5400390271       10.2802529714        1.4644311403
 H       -10.7380506922        7.4500172375       -0.8852345610
 H       -12.1563282189        8.2111036351       -0.3858840080
 H       -13.2277105135        6.3927647991        0.7689076372
 H       -11.8910238271        5.3840014294        0.7234429321
 H       -11.2157614120        2.4633948551       -1.9274100373
 H       -11.9197704831        3.5737412833       -2.9849792382
 H       -12.2154773545        1.6213422391       -4.1915513998
 H       -13.8104993282        1.5869009660       -3.3105147431
 H       -14.7181727593       -3.1971132817       -0.6732050457
 H       -14.2700467059       -3.5878239078       -2.3532223464
 H       -15.4672789128       -2.3292951397       -2.0099767060
 H       -14.0675101416       -0.3064430673       -4.8392779162
 H       -15.0390305853       -0.4228208011       -3.4325617388
 H       -14.4913708828       -1.8507002396       -4.3297702815
 H       -11.6889910864       -1.6910147073       -4.6088431180
 H       -12.6457856302       -3.0814444166       -3.8739481753
 H       -11.2160171087       -2.3244946420       -3.0643097581
 H       -14.3397439242        4.2403847223        0.7328861208
 H       -15.6614102345        3.7887811326       -0.2879327847
 H       -15.3932980283        5.4891737271        0.0283934139
 H       -14.0771155232        4.3277198565       -3.5127761512
 H       -14.9760991256        5.5395973310       -2.8227434528
 H       -15.5935196803        3.8268134596       -2.6872233419
 H       -10.1630113736        9.3040846785        3.4792093934
 H        -8.7209623904       10.1457974636        2.7646714636
 H        -8.7553705222        8.4758399634        3.0118097884
 H       -11.3995151756       10.1633437614        0.0895468645
 H       -10.6762062624       11.2194969124        1.2094662772
 H       -11.8122024076       10.0965717198        1.8605235075
 H        -2.9796833983        6.7820650926       -0.8304897086
 H        -3.7512405796        7.0655096175        0.8245786677
 H        -2.7850774655        8.3399152504       -0.0875720289
 H        -3.6195358960        8.1504538229       -2.5927437215
 H        -3.9492128547        9.6602680089       -2.0172698402
 H        -5.1770183337        8.9127828664       -2.8876330096
 H        -7.5204489913       -0.1401332348        0.4013095099
 H        -6.1763988080        0.6719554383        1.2337346700
 H        -6.0685641367        0.4343966288       -0.4478246027
 H        -7.3572110529        1.6107049658       -2.1966418646
 H        -8.5620972246        2.8666511829       -1.7174694043
 H        -8.8887616443        1.1500997984       -1.3976911838
 H        -9.8389883689       -1.1547856565        5.0479750584
 H        -9.1175565601       -2.5233965056        4.1602196954
 H       -10.7428754781       -2.6436313213        4.7304127387
 H       -11.7274438495       -2.4036807316        1.3347791389
 H       -11.6698787661       -3.2519907931        2.8873243397
 H       -10.2369005115       -3.0762619108        1.8653356480
 Na      -11.8097891954        0.6036479409        0.0342997034
