117

 C       -12.2277168451       -0.0495344551        4.6863433457
 C       -11.9539082016       -0.5499165888        3.2972402198
 O       -12.6573675617       -0.2270051272        2.3458401962
 C       -10.6877611666       -1.4987808633        3.0298983772
 C        -9.7429692040       -0.4530638346        2.2679864729
 O        -9.7210367484       -0.4297417794        1.0712427123
 C        -8.8544089157        0.4750237889        3.0871525991
 C        -8.7337871831        1.8767855375        2.4511387575
 C        -8.8843397024        1.9918459017        0.9175153013
 O       -10.0142030756        2.2324784350        0.3960052337
 C        -7.6345786909        2.0299713408        0.0237437941
 C        -6.7135883115        3.2602630976        0.4082963916
 O        -6.4344791551        3.4442657352        1.5738125327
 C        -6.2292811496        4.1539075395       -0.7697830656
 C        -5.2711281273        5.2847830365       -0.3197573946
 C        -5.4791593506        6.5058498703       -1.2551347028
 O        -6.1059358726        6.4334874724       -2.2837764922
 C        -4.7328535587        7.8466928793       -0.8658971049
 C        -5.8343740047        8.6576451194        0.0870950518
 O        -6.1153701722        8.2834116550        1.1924182708
 C        -6.5295183280        9.9418462514       -0.4955694480
 C        -7.7737948935       10.2396145496        0.3418957052
 C        -8.8448016906        9.0194729578        0.3196068375
 O        -8.6719279039        8.0587515248       -0.3919543815
 C       -10.0375900385        9.1034880077        1.3707397525
 C       -10.7519681397        7.7638559162        1.3138272386
 O       -10.9546129173        7.0460392718        2.2551470963
 C       -11.4103127177        7.4235556738       -0.0609290974
 C       -12.3467967274        6.2365149537        0.0669862295
 C       -12.7842402192        5.7060328883       -1.3342620265
 O       -12.3191517314        6.2011844545       -2.3380448952
 C       -13.8903945303        4.5609162093       -1.3409137084
 C       -13.1434138730        3.1408871670       -1.2428707617
 O       -13.4068362336        2.3549562734       -0.3371607446
 C       -12.0951434116        2.8015857681       -2.2631904620
 C       -12.5594513875        1.6950530602       -3.2613158198
 C       -12.2584261273        0.2687715053       -2.7632090561
 O       -11.2658380769        0.0898949391       -2.0826330154
 C       -13.1152930424       -1.0987980869       -2.9557264413
 C       -13.5447779981       -1.7407100495       -1.6109280124
 O       -13.0998823704       -1.3892994805       -0.5550694557
 C       -14.6389827033       -2.8324510475       -1.7145706647
 C       -14.3553119350       -1.1014399764       -3.9585625179
 C       -12.0098138022       -2.2079148888       -3.4788724953
 C       -14.8733423784        4.6556750067       -0.2131624910
 C       -14.6313535327        4.5816502345       -2.7274416355
 C        -9.3763680126        9.2657397555        2.7958041956
 C       -11.0698601165       10.2968133303        1.0799028385
 C        -3.3680322812        7.5481664908       -0.1131657778
 C        -4.4266129242        8.6104859751       -2.1242623697
 C        -6.8111693602        0.7926677591        0.3913047011
 C        -8.0190766634        2.0913340600       -1.4636525148
 C        -9.9986667602       -2.0472101363        4.3012998270
 C       -11.2527234785       -2.6523135520        2.1332655974
 H       -11.8586739063       -0.6468703010        5.5247628983
 H       -13.2246854550        0.0358446400        4.8036792763
 H       -11.7536246621        0.9649244384        4.7593025244
 H        -7.8816692815        0.0350981574        3.4169349830
 H        -9.3609274889        0.6749286679        4.0706380226
 H        -7.7417824670        2.2876030047        2.6695117801
 H        -9.4444255400        2.6234368705        2.8653305379
 H        -7.1466328798        4.6105093112       -1.2101428401
 H        -5.7201560701        3.5604994561       -1.5356417568
 H        -4.2060226791        4.9860641076       -0.4053625671
 H        -5.4187518340        5.6332899135        0.6975224510
 H        -6.7853681315       10.0256434490       -1.5835838074
 H        -5.8165597980       10.7131308478       -0.2660842845
 H        -8.2549156496       11.1905455421       -0.0227401517
 H        -7.4684590977       10.3749249136        1.3941148910
 H       -10.6002491234        7.1215462247       -0.6716683464
 H       -11.7852639510        8.2466970195       -0.6572895100
 H       -13.2267737089        6.3382024870        0.7425149245
 H       -11.9091311992        5.3362846652        0.5420976087
 H       -11.1997875557        2.5214954202       -1.7761203212
 H       -11.8239918933        3.6964063411       -2.8382294970
 H       -12.0626467697        1.7562126363       -4.2621990114
 H       -13.6778017865        1.7371664562       -3.3903192520
 H       -14.7179276983       -3.4307572647       -0.7247479676
 H       -14.5179574194       -3.5224366253       -2.5031397938
 H       -15.5686825337       -2.2828355490       -1.8397125015
 H       -14.1026345852       -0.8304448543       -4.9956883931
 H       -15.1450864067       -0.4140511680       -3.7170649628
 H       -14.7203779277       -2.1597522577       -4.0458370035
 H       -11.5800525679       -1.8147573610       -4.3975164163
 H       -12.6358795018       -3.1006704071       -3.6078939162
 H       -11.2024496289       -2.3351636262       -2.7862883363
 H       -14.4984761858        4.6456754642        0.7725509339
 H       -15.6287185579        3.8205755107       -0.3036053032
 H       -15.4473530213        5.5285046390       -0.3757301045
 H       -14.0870916497        4.0640908152       -3.5481530395
 H       -14.7081712066        5.5558468846       -3.1246918995
 H       -15.6140790140        4.1349501826       -2.6228625702
 H       -10.1247123215        9.0994871564        3.6004860694
 H        -8.9119946660       10.3197467239        2.8672339994
 H        -8.5541429225        8.6577971116        3.0762794942
 H       -11.4150842565       10.1949668070        0.0642245063
 H       -10.8009007647       11.3085770837        1.2355178942
 H       -11.8771990238       10.1268772384        1.7823434586
 H        -2.7810942379        6.7834098244       -0.7551214057
 H        -3.5192886563        7.2947479741        0.9016802951
 H        -2.7896635576        8.4844285303       -0.2271693676
 H        -3.6002596018        8.0654884532       -2.5576627772
 H        -4.0815211758        9.6446578555       -2.1310611687
 H        -5.2886550801        8.6544911044       -2.7444875113
 H        -7.4662323815       -0.0465872613        0.2540960957
 H        -6.4432123555        0.7402490906        1.4137086345
 H        -5.9033423278        0.6506517291       -0.2396083247
 H        -7.1325676070        1.9681854371       -2.0690725926
 H        -8.5054101756        2.9706912717       -1.7124030062
 H        -8.6275172951        1.2709552006       -1.6576908126
 H        -9.5143578216       -1.2318177075        4.8658593785
 H        -9.1553187721       -2.6683544275        3.9952333368
 H       -10.5845648953       -2.6599301581        4.9432372864
 H       -11.8282562468       -2.2652499282        1.3328042242
 H       -11.7446530811       -3.3994332196        2.7057721927
 H       -10.4735413797       -3.0780520555        1.6566965549
 Na      -11.8475330853        0.5511457891        0.0277644642
