117

 C       -13.9213189870       -0.4177786163        3.9319957007
 C       -12.6205339625       -0.0047870298        3.2971165790
 O       -12.6496041844        0.4776136879        2.1949408350
 C       -11.2273931423       -0.3282590744        3.9425354977
 C       -10.1040692245        0.2000570164        2.9521547431
 O        -9.9770875283       -0.3787362867        1.9292874384
 C        -9.0592414770        1.2729192095        3.4389257010
 C        -8.0151555949        1.9819175198        2.4874607585
 C        -8.2904201388        1.8033895146        0.9245585171
 O        -9.3982636200        2.0993192044        0.3968792178
 C        -7.0051775376        1.5239211820        0.1392817415
 C        -6.1159950134        2.8393947271        0.2790631359
 O        -5.3799358761        2.9565417075        1.2132123254
 C        -6.4526597953        3.9785646588       -0.6497746916
 C        -5.6509356556        5.2313267748       -0.4402497571
 C        -5.6260960693        6.0737757238       -1.6873923880
 O        -5.9976892010        5.6023824004       -2.7220606234
 C        -5.1368251679        7.5695433930       -1.5477977187
 C        -6.2274330277        8.5409078571       -0.8809305718
 O        -6.3068882706        8.5748305197        0.3249358152
 C        -7.1660872830        9.3548990076       -1.7867156579
 C        -8.2630697195       10.0544282431       -0.8877514952
 C        -9.4996375222        9.2059352713       -0.7538138479
 O       -10.2447903485        8.9093688931       -1.6625079536
 C       -10.0428759106        8.9248557014        0.7992708359
 C       -10.7317676394        7.5194892406        0.7831211300
 O       -10.1688177838        6.5409887209        1.3220310611
 C       -12.0158552293        7.3886820992       -0.0540219071
 C       -12.8559476896        6.2080207884        0.3985348489
 C       -13.5498733805        5.4631639500       -0.7835538024
 O       -13.6202792891        5.8377182552       -1.9214682591
 C       -14.2319132351        4.0806995600       -0.4867765851
 C       -13.2652711266        2.9264329511       -0.9189287450
 O       -13.1065592542        1.8791110725       -0.3023476081
 C       -12.5695759424        2.9896212909       -2.3073611134
 C       -12.9007923869        1.6762536776       -2.9992139889
 C       -11.8984249932        0.6005311798       -2.5701844742
 O       -10.7933107494        0.8717205586       -2.1131781893
 C       -12.1821193524       -0.8860058931       -2.7602017633
 C       -12.4527988697       -1.6481645085       -1.4344154145
 O       -11.9744928896       -1.2661842550       -0.3587230432
 C       -13.0648453591       -3.0766047513       -1.5021804128
 C       -13.4159457131       -1.0057488487       -3.7063280087
 C       -10.8981160433       -1.6186101771       -3.3766346865
 C       -14.5872594236        3.8807818729        0.9888513095
 C       -15.5543902422        4.1097939743       -1.3064193439
 C        -8.8723237174        8.8540667250        1.8369086396
 C       -10.9624025305       10.0900674262        1.2603536981
 C        -3.8599908022        7.5514444020       -0.5855057653
 C        -4.6998446747        8.2505546169       -2.8580277976
 C        -6.3083458859        0.2616064898        0.6881131049
 C        -7.4547844236        1.1992887294       -1.2952754074
 C       -11.2713323566        0.2705829594        5.3473926062
 C       -11.0910175083       -1.8487224342        4.0505694952
 H       -13.7194490520       -1.0783943990        4.7567458143
 H       -14.6693570071       -0.9052531244        3.2315040944
 H       -14.4108880608        0.4368898637        4.3215028087
 H        -8.4348700860        0.7851634245        4.2283044966
 H        -9.5457936896        2.1272801038        3.9685819844
 H        -7.0090243802        1.6560283366        2.7140352082
 H        -7.9017350598        3.0378564332        2.7689523077
 H        -7.5263004124        4.0761376103       -0.4678788344
 H        -6.2927075969        3.6938756608       -1.6905800030
 H        -4.5997023786        4.9732433830       -0.1231092653
 H        -6.1108151400        5.8242077213        0.3444114531
 H        -7.6242638549        8.8365464868       -2.6655976482
 H        -6.5901026791       10.0830107684       -2.2943966044
 H        -8.5854340169       11.0676743408       -1.2501999853
 H        -7.8490938407       10.1388443554        0.1303210319
 H       -11.7502121443        7.3377309922       -1.0775174378
 H       -12.6857937645        8.2565652046        0.0880727316
 H       -13.6577856424        6.5154404975        1.0645243319
 H       -12.1239016682        5.4538868884        0.8121791681
 H       -11.5328521745        3.0663290950       -2.1715078733
 H       -12.9733236327        3.8058193828       -2.8982847197
 H       -12.7915948413        1.6866800736       -4.1303574485
 H       -13.8454241811        1.1893499303       -2.7211870235
 H       -14.0913086674       -3.0597140938       -1.1821059680
 H       -12.4408513778       -3.6892968803       -0.7380375902
 H       -13.0573544314       -3.5396383934       -2.4521983808
 H       -13.2028023248       -0.5289169815       -4.6686259554
 H       -14.3620991803       -0.5813712582       -3.3726196024
 H       -13.4798322300       -2.0324591937       -4.0302366039
 H       -10.7266135921       -1.1201789973       -4.3374491798
 H       -11.1325985917       -2.7142655047       -3.4862735119
 H       -10.0406059455       -1.3551416024       -2.7823225655
 H       -13.7133793235        3.6092327614        1.5095298520
 H       -15.4231966538        3.1570466765        1.2061619498
 H       -14.9019301188        4.8220306711        1.4182296453
 H       -15.2161648280        4.2079606380       -2.3377190692
 H       -16.0394161170        5.0294189838       -1.1672812336
 H       -16.2638144829        3.2680451319       -1.1580899068
 H        -9.3563448695        8.3950043650        2.6992569606
 H        -8.5294406091        9.8543300685        2.0457237591
 H        -7.9645848922        8.2529784049        1.5414068855
 H       -11.5290840666       10.5592246214        0.4183281615
 H       -10.3293213795       10.8635746945        1.7266554052
 H       -11.6237937663        9.7199118626        2.0697801509
 H        -3.1902574746        6.7429865637       -0.7657186257
 H        -4.3219824719        7.4326828857        0.4599037783
 H        -3.3418718670        8.5146715818       -0.6548982553
 H        -3.8204911758        7.9190437787       -3.3062133369
 H        -4.4118989527        9.3487498799       -2.7023265726
 H        -5.4829580153        8.3815307198       -3.5954192757
 H        -7.0335514515       -0.5107640418        0.9353907766
 H        -5.7771932521        0.4930108569        1.5856976684
 H        -5.5507744496       -0.1487848920        0.0162596687
 H        -6.6009235193        0.8719607373       -1.8509286479
 H        -7.8802577953        2.0483367673       -1.7802474944
 H        -8.1490576291        0.4044012984       -1.2500359949
 H       -11.5221320710        1.3244023904        5.2436232698
 H       -10.2832398997        0.2474996123        5.8734959912
 H       -11.9548055894       -0.2068705317        5.9650593048
 H       -11.0032609871       -2.2235696945        3.1012608921
 H       -11.8572051117       -2.2671066386        4.6028338386
 H       -10.1522467849       -2.0568447072        4.5561658625
 Na      -11.2969388663        0.8823608202        0.3254836827
