117

 C       -13.6555837536       -0.4590900651        4.5378116093
 C       -12.5736478360        0.1968557666        3.8062902945
 O       -12.6082444684        0.1440529967        2.5544338750
 C       -11.4232030430        1.0339033606        4.4994341975
 C       -10.0828995111        0.7574378562        3.4996764805
 O       -10.0896100246       -0.2143608515        2.7843846507
 C        -8.9024883797        1.6904102752        3.6370638717
 C        -7.7338478664        1.4433704675        2.6263152917
 C        -7.9483323983        1.3402472677        1.1193877003
 O        -9.0499954862        1.4119034004        0.5367851866
 C        -6.6753606956        1.2816407541        0.2361571623
 C        -6.1431492211        2.8275028679        0.2823755663
 O        -5.7184498983        3.1923021702        1.3439234605
 C        -6.1956382338        3.6162475508       -1.0305051695
 C        -5.4496819761        4.9678799945       -1.0681861908
 C        -6.0985226788        5.9947429900       -1.9618855926
 O        -7.2102515775        5.8094841588       -2.4342223876
 C        -5.2666594317        7.2884583163       -2.3550798086
 C        -6.0464622612        8.5379665171       -1.5801040838
 O        -5.6736920829        8.9456017833       -0.5149827254
 C        -7.2799967749        8.9679845100       -2.3942187133
 C        -8.4142092522        9.5440358615       -1.3915053741
 C        -9.4879278356        8.4491307102       -1.0289974880
 O        -9.7178063082        7.4648187900       -1.6966938582
 C       -10.3151713223        8.8954784798        0.2225241476
 C       -11.0811525007        7.5811325141        0.6655518792
 O       -10.7631181204        6.9498350613        1.6266608332
 C       -12.2732655112        7.2745368907       -0.2199502656
 C       -12.9258791668        5.9549944678        0.2427157181
 C       -14.0053384846        5.3241608905       -0.6788619178
 O       -14.2880688645        5.8862151725       -1.7302094036
 C       -14.7621126943        3.9689161506       -0.0701011590
 C       -13.8587317638        2.7523041130       -0.4708346669
 O       -13.1864704953        2.2226723412        0.3973812205
 C       -13.8616390392        2.2453023859       -1.9029169245
 C       -13.4182678573        0.7585727802       -2.1571705083
 C       -11.8917322591        0.6183777769       -2.2317507648
 O       -11.1689362441        1.5579499989       -1.8626956484
 C       -11.2781870048       -0.6887200241       -2.7585917486
 C       -11.2973813468       -1.7649563822       -1.6041508442
 O       -11.8537595044       -1.4880242218       -0.5546640634
 C       -10.8759303465       -3.2169055848       -1.9157138865
 C       -12.1998656250       -1.2564323955       -3.9643494820
 C        -9.8884424429       -0.4682659918       -3.2671929075
 C       -14.8909387247        3.9537693157        1.4636776225
 C       -16.1697485146        3.9267495128       -0.7102216410
 C        -9.4858532510        9.4166302960        1.4121000957
 C       -11.2759540592        9.9351410720       -0.2796188324
 C        -3.8287333653        7.3042656347       -1.7936283743
 C        -5.1968926200        7.2657102998       -3.9587956687
 C        -5.5259463876        0.4620763679        0.8008041289
 C        -7.0446700763        0.7992523080       -1.2078719836
 C       -11.7421312490        2.5373723203        4.4913036505
 C       -11.0298268999        0.5844637766        5.8675218104
 H       -13.4296941802       -1.5333559034        4.7760995726
 H       -14.5556243343       -0.4619282053        4.0007078460
 H       -13.8032785013        0.0048084966        5.5226599751
 H        -8.5489277145        1.6851920452        4.6918121935
 H        -9.2457691481        2.7396955079        3.5515000325
 H        -7.1907374509        0.5420378271        2.9171244630
 H        -7.0289260753        2.3084381358        2.6868928760
 H        -7.1973259281        3.6962641284       -1.3697415094
 H        -5.7882040398        2.9419546374       -1.8156737520
 H        -4.4411571971        4.8050773032       -1.5603195482
 H        -5.2378163215        5.3061082253       -0.0469893319
 H        -7.7211769718        8.0599763360       -2.8827574761
 H        -7.0696958130        9.5977322951       -3.2106105166
 H        -8.8622519803       10.4114908161       -1.9488369402
 H        -7.9204228919        9.9833728073       -0.5080576859
 H       -12.0655610196        7.1146559658       -1.2599425148
 H       -13.1174401147        7.9982329765       -0.1664838862
 H       -13.2197573906        6.0871606869        1.2727499545
 H       -12.2958418143        5.0823650766        0.5098925242
 H       -13.2631798115        2.8795620668       -2.5265942030
 H       -14.8487260304        2.2814123047       -2.3706622695
 H       -13.8342453324        0.3348325585       -3.0986405152
 H       -13.8206294210        0.1279285663       -1.3452467761
 H       -11.7939454668       -3.6937893437       -2.3525063024
 H       -10.6607341360       -3.7742734309       -1.0621122530
 H       -10.0739068696       -3.2898478598       -2.7034602968
 H       -12.1783066874       -0.5700166331       -4.7827658258
 H       -13.2278540329       -1.4944414681       -3.7539005155
 H       -11.6604820122       -2.0496639468       -4.3587388160
 H        -9.8784974441        0.3484250457       -4.0057025721
 H        -9.5251021846       -1.4494600729       -3.6448543368
 H        -9.2265875262       -0.0788644211       -2.4547689753
 H       -13.9087930857        4.0875695904        1.9018734107
 H       -15.3299537102        2.9923894687        1.7677285660
 H       -15.5891914010        4.7381606093        1.8138539865
 H       -16.1388555961        4.2551075534       -1.7245210712
 H       -16.7666793016        4.6810526002       -0.1962426465
 H       -16.7008403029        2.9297714853       -0.5348990710
 H       -10.1296780318        9.4100842373        2.2890026758
 H        -9.0151944275       10.3349833714        1.1810133775
 H        -8.6758339394        8.6695560169        1.5521836442
 H       -11.8315550990        9.6690956849       -1.2302044014
 H       -10.6647673639       10.8372215696       -0.4847141597
 H       -12.0529367791       10.2053895338        0.4825132013
 H        -3.1582673209        6.5639322911       -2.1721214306
 H        -3.8682614203        7.1741448468       -0.7160288425
 H        -3.3292983700        8.2852220000       -1.9442348500
 H        -4.6348376415        6.3950661129       -4.2152706467
 H        -4.5292501163        8.0771644066       -4.3716510495
 H        -6.2034563183        7.2670384956       -4.4124619163
 H        -5.7338993404       -0.6351080907        0.8446578740
 H        -5.1792691698        0.7830854654        1.7797741646
 H        -4.6663247370        0.6503402965        0.1532831899
 H        -6.2434131356        1.0448820811       -1.9195869590
 H        -7.9764829041        1.2626458801       -1.6366584986
 H        -7.1813991628       -0.3318676699       -1.2916322215
 H       -11.8898937747        2.9460279376        3.4956168356
 H       -10.9405152423        3.1327371267        5.0423161268
 H       -12.6162484557        2.6424543593        5.1107643787
 H       -10.4822258292       -0.3683083259        5.9071828304
 H       -11.9671372860        0.4585044833        6.4358622967
 H       -10.4851799188        1.3135253378        6.3617495511
 Na      -11.2741559534        0.5518068798        0.6180174481
