117

 C       -13.4179316763       -0.3447414265        4.9712188832
 C       -12.7677362672        0.3305173931        3.8289451971
 O       -13.1662810590        0.2568526231        2.6734711159
 C       -11.4859634959        1.2815879071        4.0798436642
 C       -10.2706793607        0.7970963499        3.3069499703
 O       -10.0631841449       -0.2939193642        2.8876803448
 C        -9.1853669844        1.8175594571        3.2355868995
 C        -7.9043044653        1.3274294353        2.5352269679
 C        -7.9110010485        1.2426549908        1.0317502209
 O        -8.9757683800        1.1035448087        0.4024449992
 C        -6.5575919809        1.3578840435        0.2975256643
 C        -6.0688813381        2.8584291915        0.3681397083
 O        -5.6534465412        3.3129383039        1.3991376322
 C        -6.3615423429        3.7773569546       -0.9338845015
 C        -5.7378444519        5.1952040657       -0.9503870789
 C        -6.0283946669        5.9120222347       -2.2961154845
 O        -6.8469082361        5.5260537404       -3.1324859815
 C        -5.2648630130        7.2251161331       -2.5959141413
 C        -6.1014628844        8.3352195375       -1.8566651417
 O        -5.6904597900        8.8551313491       -0.8546006758
 C        -7.4282634681        8.6120118341       -2.4936228806
 C        -8.3409812856        9.3940526737       -1.4802034851
 C        -9.4226931906        8.4287136323       -0.9935694002
 O        -9.4054143686        7.2472830948       -1.3116344451
 C       -10.5298392198        8.9212387930        0.0341107264
 C       -11.2414461212        7.6784324384        0.6339586130
 O       -10.9897365031        7.3042332756        1.7471778310
 C       -12.2848156646        6.9331359647       -0.2878194796
 C       -12.8596207885        5.6590994383        0.4042692620
 C       -14.0104000594        5.0495711346       -0.4255301648
 O       -14.2027475106        5.3459906629       -1.5606092725
 C       -14.7840357181        3.7751217235        0.1718090196
 C       -13.8168921887        2.6321597975       -0.1922573717
 O       -12.9423169631        2.3873488765        0.6198864169
 C       -13.8479426429        2.2653396445       -1.6738965474
 C       -13.4364582926        0.8229592990       -2.1148582653
 C       -11.8978756358        0.6451405768       -2.1663714685
 O       -11.1996107082        1.5421601509       -1.6622333128
 C       -11.2939800287       -0.6626116711       -2.7547388891
 C       -11.0505510597       -1.6627756445       -1.4390155106
 O       -11.4006502134       -1.3160837227       -0.3411566527
 C       -10.3865137966       -3.0162967501       -1.6321343732
 C       -12.2244079263       -1.3269122752       -3.7473853929
 C        -9.8886507347       -0.3957736876       -3.3601944007
 C       -15.0229049511        3.7409880784        1.7677849861
 C       -16.2128713825        3.6972550159       -0.4351639601
 C        -9.6865936229        9.6405200044        1.1669468094
 C       -11.5642736573        9.9059596813       -0.5472296859
 C        -3.8098748963        7.3163946646       -2.0291315744
 C        -5.1370340733        7.2743147997       -4.1535039733
 C        -5.4911035734        0.4597611403        1.0690534590
 C        -6.6980989589        0.8437253251       -1.1638195918
 C       -11.9319887681        2.7958365694        3.7465821784
 C       -11.0165420496        1.2573136749        5.6213274330
 H       -12.7680188357       -0.9126987426        5.5663968041
 H       -14.2280125457       -1.0100022579        4.6691462680
 H       -13.8487200056        0.4396786266        5.6728860191
 H        -8.9173083431        2.3611427640        4.1855453667
 H        -9.6043843119        2.6525403565        2.6162807719
 H        -7.6550608077        0.3367428327        2.9185126774
 H        -7.0381737718        1.9705826572        2.7431584054
 H        -7.4220322514        3.9507125317       -0.9789789988
 H        -6.1912707164        3.3061866176       -1.9346171196
 H        -4.6470538731        5.0709012015       -0.9713083738
 H        -5.9579015343        5.8692781171       -0.1453917073
 H        -7.9432556430        7.6344688642       -2.7940607931
 H        -7.2871757995        9.0280966903       -3.4773734473
 H        -8.9149940743       10.2336547606       -1.9738660425
 H        -7.6383974405        9.8260094565       -0.7400629148
 H       -11.8843490921        6.6443805960       -1.2438004635
 H       -13.1426287943        7.5531904987       -0.5422008366
 H       -13.1543813379        5.8797554575        1.4360126005
 H       -11.9442395634        5.0323918920        0.5786724310
 H       -13.2528867361        2.8608623781       -2.2832904471
 H       -14.8192992982        2.2833972925       -2.0951847110
 H       -13.7584817083        0.7932970466       -3.1998062627
 H       -13.9951613340        0.0526799710       -1.5479836345
 H        -9.5930657951       -2.9777095915       -2.4214677796
 H       -11.0725586118       -3.7499304077       -1.8492270657
 H        -9.8933224733       -3.2765937161       -0.6616368135
 H       -12.5111395554       -0.6694743991       -4.5884676266
 H       -13.1733925076       -1.5711720470       -3.1922136501
 H       -11.8610641923       -2.2779443629       -4.0894404555
 H        -9.9232118832        0.2818971286       -4.2018500007
 H        -9.4439184850       -1.3495581844       -3.6105319748
 H        -9.1804970330        0.1243768769       -2.6629473149
 H       -14.3506386166        3.0645537744        2.2985000419
 H       -15.9765485792        3.3040325735        1.9384089748
 H       -15.0353980251        4.7238536878        2.2716259718
 H       -16.2022269074        3.9629508288       -1.4635459226
 H       -16.8468004466        4.4456597508        0.0735760724
 H       -16.5426382388        2.6246819667       -0.3373357715
 H       -10.4298764378       10.0812142200        1.8398867214
 H        -8.9727601746       10.3661962061        0.7871876481
 H        -9.1225222828        8.9286814705        1.7382092786
 H       -12.0172859848        9.5615589309       -1.4460656952
 H       -11.1130107114       10.7960535754       -0.8898017851
 H       -12.2504344287       10.1587232857        0.2207409494
 H        -3.1757958831        6.5082428219       -2.3523351778
 H        -3.6861588441        7.3786959265       -1.0201456161
 H        -3.4131124891        8.2669049030       -2.4068015409
 H        -4.1560826981        6.8274947163       -4.3459521902
 H        -5.2762982339        8.2928682635       -4.5297409909
 H        -5.9332815392        6.6283174476       -4.5859950543
 H        -5.9153105148       -0.5508396816        1.2167536308
 H        -5.1536511789        0.8089711077        2.0208131802
 H        -4.6774694220        0.3183100466        0.4073846238
 H        -5.8296415954        1.0613246023       -1.8432834070
 H        -7.5588212423        1.2988511710       -1.6663477375
 H        -6.8616289266       -0.2626819296       -1.2261787269
 H       -12.2590137773        2.7990643102        2.7209544423
 H       -11.0473863772        3.4558438328        3.7913032658
 H       -12.7585890802        3.1910571967        4.3413629247
 H       -10.9760179115        0.1956997175        6.0643822168
 H       -11.7037447848        1.8512401989        6.2851665033
 H        -9.9560877702        1.5653484392        5.7950260583
 Na      -11.3120566367        0.7807235428        0.8251850442
