117

 C       -13.6599018525        0.3601793249        4.5988237731
 C       -12.4732323397        0.5287571657        3.7154235216
 O       -12.4876046200        0.0949869937        2.5912735145
 C       -11.3997738340        1.5722045220        4.1016558262
 C        -9.9859277088        1.1862988157        3.4332071782
 O        -9.6535533877        0.0532752204        3.5313166672
 C        -9.1641170366        2.3884759636        3.0457509473
 C        -7.7577398480        2.1087102627        2.5478359952
 C        -7.8645051690        1.6130785033        1.0912514640
 O        -8.8852464195        1.1302081091        0.6053657187
 C        -6.5704496835        1.4224976776        0.2813044048
 C        -6.2553356323        2.9203902881        0.0195865778
 O        -5.8113477314        3.6223257171        0.9193962347
 C        -6.6064650384        3.5559797618       -1.4217522826
 C        -6.3761903427        5.1404110739       -1.3644491715
 C        -5.8295466764        5.5838669217       -2.7185641761
 O        -5.9039423550        4.8200299408       -3.6738617621
 C        -5.2117444814        7.0361292995       -2.8831825249
 C        -6.2493566167        7.9810611023       -2.1186838366
 O        -6.0660068461        8.4587596017       -1.0059310458
 C        -7.6466815263        8.2885158130       -2.8390373407
 C        -8.5591251449        8.9910048776       -1.8342773089
 C        -9.4621994090        8.1070062602       -0.8774014568
 O        -9.2326197948        6.9360745727       -0.5606937882
 C       -10.6791533323        8.8232356890       -0.1512908603
 C       -11.4612175208        7.8233313075        0.6467298548
 O       -11.5014966243        7.9021436485        1.8766380453
 C       -12.1664907680        6.6795744262       -0.1033839211
 C       -13.3653097053        5.9999091021        0.6849494657
 C       -14.2268870651        5.1097716484       -0.2753949547
 O       -14.3118581281        5.3286190038       -1.4402411513
 C       -14.9891281954        3.7288671992        0.2706595067
 C       -13.9404983354        2.5823259496        0.0496322052
 O       -13.1013364423        2.2464168963        0.8804824201
 C       -13.9790973997        1.9287967248       -1.3114077219
 C       -13.4265832079        0.4657970183       -1.5072968701
 C       -11.9716403985        0.3792537014       -1.7394298461
 O       -11.2291810568        1.3241700335       -1.4068927162
 C       -11.2907523739       -0.8200837606       -2.4428068641
 C       -10.6260015951       -1.6935371190       -1.2913187681
 O       -10.6693598499       -1.3988069142       -0.1280806619
 C        -9.9094449934       -2.9993853781       -1.6904240978
 C       -12.1206089533       -1.6654779664       -3.4058973827
 C       -10.0618620774       -0.1481182791       -3.2423553032
 C       -15.3398369615        3.8462898531        1.7642785986
 C       -16.3503396426        3.5778319174       -0.4969127554
 C       -10.0007053475        9.8629031185        0.8455495213
 C       -11.4901154956        9.6569477563       -1.2019090185
 C        -3.8626139957        7.0360023487       -2.1487446825
 C        -4.9615958647        7.5990519740       -4.3382405131
 C        -5.4443591221        0.8147830438        1.1482260720
 C        -6.7354493190        0.5542692289       -0.9931028722
 C       -11.9063781638        3.0024340323        3.6783130023
 C       -11.1328342723        1.6352161110        5.6209594724
 H       -13.3681784174        0.0694534111        5.5283745672
 H       -14.2752845811       -0.4630977918        4.2156369753
 H       -14.3184383346        1.2537239708        4.7930358182
 H        -9.0776500403        3.0765157056        3.8666541827
 H        -9.7523339636        2.8294670274        2.2442352514
 H        -7.3097962304        1.2602155189        3.0843924804
 H        -7.0114902030        2.9240406283        2.6749655149
 H        -7.6429607665        3.3660377166       -1.5880346965
 H        -6.0125712358        3.1082478132       -2.2558695868
 H        -5.6992872934        5.3795681246       -0.4871168853
 H        -7.3130648205        5.6219667700       -1.0699390231
 H        -8.0832044681        7.3493405325       -3.1768918990
 H        -7.5648041774        8.9237388706       -3.7100328779
 H        -9.2415377886        9.6785816208       -2.4015560181
 H        -7.9007535963        9.6013182486       -1.2425157773
 H       -11.3799544350        5.9581155616       -0.4690551751
 H       -12.6009472347        6.9136905877       -1.1049698616
 H       -14.0197600444        6.8070378524        1.0412037926
 H       -12.8311680351        5.4367043288        1.4887719068
 H       -13.3929272580        2.4604852451       -2.1040531398
 H       -15.0092526018        1.8489247861       -1.7980106141
 H       -13.8744439784        0.0738095631       -2.4063322821
 H       -13.7264596643       -0.1686517020       -0.6803760802
 H        -9.0704259894       -3.1125520574       -0.9725349381
 H        -9.5086569634       -3.0629281295       -2.6801609142
 H       -10.5788495297       -3.8565020084       -1.6145197626
 H       -12.2227358470       -1.1875876931       -4.3651321033
 H       -13.1269912317       -1.8664764717       -3.0335977652
 H       -11.6662831800       -2.5826652195       -3.6246178918
 H       -10.4443076699        0.4757160913       -4.0341878450
 H        -9.5783848648       -0.8417114194       -3.9251745157
 H        -9.2344482178        0.2825947556       -2.6170903839
 H       -14.4694810911        3.9086108062        2.4250616568
 H       -15.9636021846        2.9904115056        2.0078228971
 H       -15.9577894926        4.7266066735        2.0307387473
 H       -16.1438407271        3.5712979119       -1.5288161262
 H       -17.0811250486        4.3022422884       -0.1485983921
 H       -16.7680074435        2.5550414927       -0.2121454897
 H       -10.7819485109       10.5528794796        1.2086129599
 H        -9.3001511813       10.5356915859        0.3721108362
 H        -9.5982265633        9.3682056651        1.7160429530
 H       -11.9661518154        9.0528743158       -2.0008333898
 H       -10.8906931592       10.5302440554       -1.4667800275
 H       -12.4292744095       10.0962431399       -0.7870311801
 H        -3.1062532093        6.3318930503       -2.5647347294
 H        -3.9949202635        6.8094366423       -1.1345613762
 H        -3.2810400180        8.0128358446       -2.2421022477
 H        -3.9365993078        7.3692505178       -4.6014247641
 H        -5.1000581885        8.6555580894       -4.1713734880
 H        -5.6882874908        7.1164614098       -4.9917776002
 H        -5.7511584163       -0.1840311879        1.5339232924
 H        -5.1215744250        1.5054594719        1.9132729413
 H        -4.6000473290        0.7000540273        0.4708330511
 H        -6.0777903178        0.8744700473       -1.8661971466
 H        -7.7728600354        0.5790117668       -1.3546223852
 H        -6.4822559202       -0.5333535210       -0.8098690289
 H       -12.0029614358        3.0903490105        2.5929805761
 H       -11.1441418820        3.7566796028        4.0672876450
 H       -12.8394278579        3.3093322826        4.1461295296
 H       -10.9772652002        0.6456661392        6.0027352655
 H       -11.9962700244        2.0139876982        6.1197367689
 H       -10.3414625430        2.2654208432        5.9059187546
 Na      -11.0841566731        0.7285490182        0.8413140035
