117

 C       -13.7317035545        0.5098539234        4.5820875295
 C       -12.4499196995        0.6548955344        3.8032862053
 O       -12.3303142756        0.0666480332        2.7352436323
 C       -11.3126077708        1.6203220930        4.3017914558
 C        -9.9287008384        1.3748728861        3.5865436810
 O        -9.3327664595        0.2697445047        3.4241491824
 C        -9.0247504466        2.5978669071        3.2662699265
 C        -7.7062113629        2.2765413975        2.5329389306
 C        -7.8727815709        1.6325930008        1.0898335374
 O        -8.9218581898        1.3123735928        0.5586149883
 C        -6.5746195477        1.4655950698        0.3147214579
 C        -6.1471700488        3.0858731746       -0.1140497716
 O        -5.7315841009        3.8103843377        0.7543104222
 C        -6.4637790322        3.5007364837       -1.4893824288
 C        -6.4521624884        4.9986693222       -1.6610012816
 C        -5.7510920023        5.5043348918       -2.9423689963
 O        -5.6191762327        4.7949198149       -3.9102634688
 C        -5.2326804448        6.9653393257       -2.9053059746
 C        -6.2941393686        7.8136778155       -2.0479359448
 O        -6.0080469286        8.2567960010       -0.9824859950
 C        -7.6462372531        7.9972271394       -2.7461600208
 C        -8.6867391254        9.0013280481       -2.0477979956
 C        -9.4813681176        8.1532324698       -0.9159789033
 O        -9.1021257460        7.0445786881       -0.6710442634
 C       -10.7067589962        8.8409601457       -0.1578818462
 C       -11.6511148224        7.7303505194        0.6063544873
 O       -11.8771829792        7.9616457254        1.7576623604
 C       -12.2410638994        6.5965034243       -0.1349960823
 C       -13.2873389573        5.7802603134        0.6462920242
 C       -14.1957672459        4.9443779552       -0.3114082021
 O       -14.2546904077        5.1799231924       -1.4881770793
 C       -15.0201957101        3.7212776489        0.2082536608
 C       -13.9975343055        2.4692572724        0.0552345272
 O       -13.0961637217        2.3656278336        0.8866003160
 C       -14.0846913646        1.7407510230       -1.2098551228
 C       -13.3906516477        0.3556178114       -1.3736673037
 C       -11.8944237198        0.4192007653       -1.7378098009
 O       -11.2553165735        1.3480160889       -1.3556508772
 C       -11.1894632875       -0.7216997796       -2.5351217345
 C       -10.6123307224       -1.6525791890       -1.3055851877
 O       -10.7229158113       -1.3689535840       -0.1205750170
 C        -9.9091458124       -2.9621094413       -1.6231092363
 C       -12.2033684507       -1.6644467517       -3.2254952457
 C       -10.0859620700       -0.2941710777       -3.4841238172
 C       -15.3267034485        3.9549573809        1.7558677027
 C       -16.3448263084        3.5148014244       -0.5420892443
 C       -10.1394010360        9.8891968931        0.8792789888
 C       -11.6062557383        9.5944365776       -1.1855030883
 C        -3.9492337400        6.8749750210       -2.0386554626
 C        -5.0842550234        7.3777843477       -4.4036694439
 C        -5.3111204222        1.0040956599        1.2301292491
 C        -6.7595178989        0.6537478065       -0.9623082031
 C       -11.8380240066        3.0238385168        3.8379949077
 C       -11.3136395077        1.6073778254        5.9180391720
 H       -13.8458236668       -0.0698986606        5.6077223736
 H       -14.5294399157        0.1565041480        3.9580564935
 H       -13.9610521830        1.5075415206        4.8308369938
 H        -8.7780068391        3.0857768660        4.2349035470
 H        -9.5692919228        3.2324814682        2.5432878124
 H        -7.0319987383        1.6087423156        3.0749604864
 H        -7.1176676479        3.1727925486        2.4223167640
 H        -7.4438809497        3.0245928004       -1.8131413279
 H        -5.6530830976        3.0691925976       -2.0842842560
 H        -6.0539051421        5.4476749477       -0.8021244375
 H        -7.5078142400        5.2495840453       -1.5705536237
 H        -8.1277398427        7.0001191962       -2.6668428491
 H        -7.4622685615        8.2084618579       -3.8352740537
 H        -9.3776211577        9.4131383051       -2.7235600009
 H        -8.1353765338        9.8446593179       -1.5904659684
 H       -11.4608185700        5.9843682645       -0.5284812546
 H       -12.7863042443        6.8105011163       -1.0375756341
 H       -13.8542856883        6.5389171914        1.2175973404
 H       -12.7835795220        5.0562052624        1.2662164378
 H       -13.8245258667        2.3578996984       -2.0280735115
 H       -15.0790455168        1.5263323816       -1.4142437493
 H       -13.9821714313       -0.2336210914       -2.1175237322
 H       -13.5858327533       -0.1543869567       -0.4044400266
 H        -9.5945793678       -3.5375955398       -0.7478831003
 H        -9.0521079457       -2.7414109882       -2.2330906410
 H       -10.5214772019       -3.6002002342       -2.2750855391
 H       -13.0306100872       -1.1817660266       -3.7372026494
 H       -12.6944967657       -2.3327328576       -2.5470524948
 H       -11.6807915887       -2.1606920886       -4.0782104445
 H       -10.4115918223        0.0547216146       -4.4669317030
 H        -9.4144987646       -1.1023287766       -3.7978847482
 H        -9.4464141260        0.4068301173       -3.0103701946
 H       -14.5499046612        3.4565197111        2.3205476623
 H       -16.3502233443        3.6471381232        2.0671444026
 H       -15.2395536876        4.9580278521        2.1037529016
 H       -16.0462569072        3.7417694839       -1.5965209541
 H       -17.0809053910        4.2267344471       -0.2130912560
 H       -16.7085114440        2.5450501920       -0.4286625255
 H       -10.8151806588       10.2711303815        1.6195230728
 H        -9.6937974023       10.7389514076        0.3522692712
 H        -9.3069370013        9.3638572766        1.4377553075
 H       -12.3164810766        8.9469463122       -1.6554729757
 H       -10.9792082005       10.2042422666       -1.8299652733
 H       -12.3281192989       10.2652788046       -0.7447304541
 H        -3.0575403974        6.6066832470       -2.5411551997
 H        -4.0548792751        6.2094880234       -1.1023292306
 H        -3.6925614782        7.8436837227       -1.7163152308
 H        -4.0666782432        7.6077831409       -4.5719515523
 H        -5.6570814559        8.3277524178       -4.5485481817
 H        -5.4672838850        6.5371927141       -4.9032160265
 H        -5.5947066675        0.1277912408        1.7723671585
 H        -4.9953705245        1.8304333841        1.8942348373
 H        -4.4338018956        0.8140207431        0.5739173395
 H        -5.8793577386        0.6887064972       -1.4769217867
 H        -7.5572382363        1.0304029535       -1.5723975128
 H        -6.9803064661       -0.3507392730       -0.7790309949
 H       -11.7382875656        3.0413783812        2.7618205339
 H       -11.2712636591        3.8389196131        4.2031671211
 H       -12.8773186488        3.1927378282        4.1261626914
 H       -10.7393670111        0.7480769865        6.2901017239
 H       -12.3112738543        1.5098413832        6.3889783059
 H       -10.7469442842        2.4678316126        6.2647268449
 Na      -11.2154217937        0.7712068833        0.9830159911
