117

 C       -13.5383384930        0.5179645140        4.8756600539
 C       -12.3796655718        0.8256435195        3.9675771351
 O       -12.2065780327        0.2253720893        2.9705413082
 C       -11.3027464636        1.9054482916        4.5634636305
 C        -9.9919901942        1.6396609434        3.6358877027
 O        -9.5272476501        0.5354181117        3.2888859381
 C        -9.0841535262        2.8398197016        3.2611626167
 C        -7.7461415453        2.3703739793        2.8150619878
 C        -7.7928355012        1.9244076213        1.3262264108
 O        -8.8336789076        1.7785224943        0.7173082409
 C        -6.5029786378        1.5972868401        0.5438802502
 C        -6.1329780007        2.9455931672       -0.2171707750
 O        -5.7281439168        3.7959126268        0.5388397220
 C        -6.4576008702        3.2585198205       -1.7038533752
 C        -6.5506153342        4.7777758478       -1.9581483635
 C        -5.7984032800        5.5074669656       -3.1667356814
 O        -5.3299579022        4.8728304413       -4.1231678296
 C        -5.4000683330        7.0136091619       -3.0003586453
 C        -6.4786380518        7.8084433809       -2.2848807436
 O        -6.2802722723        8.1605848620       -1.1444422381
 C        -7.8517381665        7.9275747584       -2.8908360077
 C        -8.7327112129        8.7947498535       -1.9913539928
 C        -9.6284964507        7.9671447416       -1.0381479548
 O        -9.3206458168        6.8218531825       -0.7180528551
 C       -10.8072548279        8.7491480829       -0.3686006369
 C       -11.8400620073        7.6471326919        0.3765651061
 O       -12.2710554973        7.9290854827        1.4561606682
 C       -12.1353266554        6.4109560033       -0.4249828294
 C       -12.9523589664        5.4084293342        0.4091897647
 C       -13.9624827332        4.7617649946       -0.5397928175
 O       -14.0286444339        4.9755678640       -1.7008880776
 C       -14.8670153874        3.6727634528        0.2632072972
 C       -13.9563044852        2.3574000750        0.0714864067
 O       -13.0791200434        2.2595533463        0.9217112321
 C       -14.2528901390        1.4645368563       -1.0593650091
 C       -13.4022067017        0.1695421733       -1.1432842931
 C       -12.0452423829        0.4160841348       -1.7069187636
 O       -11.6041014942        1.5486161332       -1.7105200890
 C       -11.3244537154       -0.8288490264       -2.3396999753
 C       -10.5962549618       -1.5969896318       -1.1866971021
 O       -10.5632463853       -1.1422516454       -0.0616958097
 C        -9.8667742169       -2.9008018612       -1.5244237951
 C       -12.2741517896       -1.7113308750       -3.1306712206
 C       -10.2249427232       -0.3071211331       -3.4207360081
 C       -15.0410861172        4.0455977632        1.7239346674
 C       -16.2116632040        3.5268938609       -0.4527880910
 C       -10.2113858458        9.6036143262        0.8296201655
 C       -11.4938257803        9.5810130104       -1.4069158440
 C        -4.1194099511        6.8941670311       -2.1049976345
 C        -5.0846714060        7.5305950861       -4.4283908915
 C        -5.2928269371        1.2122536217        1.4431239040
 C        -6.8206381080        0.4289008127       -0.4427216175
 C       -11.8573378298        3.3274511468        4.4375616556
 C       -10.8314280270        1.6081945224        6.0437920849
 H       -13.5674537869       -0.4682403013        5.4144704845
 H       -14.4190481109        0.4410860793        4.2454911989
 H       -13.6804844323        1.2980137789        5.6106333283
 H        -9.0015233577        3.5698281671        4.0562709576
 H        -9.5935291182        3.1890045488        2.3565813893
 H        -7.3948809208        1.5015870669        3.3891551914
 H        -6.9615966704        3.0978892930        2.9393433264
 H        -7.3958882881        2.6574877413       -1.9966121601
 H        -5.6536993834        2.8636977822       -2.3490641879
 H        -6.3514853135        5.2560027050       -1.0328234141
 H        -7.6278314097        4.9835107109       -2.1111899565
 H        -8.2696145293        6.9219206575       -2.8735782910
 H        -7.8443714067        8.3592290767       -3.9095670601
 H        -9.3787803150        9.3468064240       -2.5771500431
 H        -8.1888138167        9.5214893342       -1.3728203022
 H       -11.3412956475        5.8073717501       -0.7763024419
 H       -12.6703070753        6.6941386100       -1.3281791332
 H       -13.4087981215        6.0933178115        1.1964223038
 H       -12.3781479774        4.6778270015        1.0373161849
 H       -14.1231538227        2.0689004171       -1.9511480428
 H       -15.2911588747        1.2323251151       -1.1088593147
 H       -13.9878475555       -0.5448305805       -1.7452982454
 H       -13.3344014676       -0.3211619929       -0.1660348300
 H       -10.4468948930       -3.8376471713       -1.2889985536
 H        -9.0217328170       -2.8955643928       -0.9597567447
 H        -9.5775572863       -2.9971868698       -2.5821412347
 H       -12.6795406738       -1.1431487076       -3.9419490536
 H       -13.1247773183       -2.0741514560       -2.6124819988
 H       -11.7440278247       -2.5864419256       -3.5218609409
 H       -10.6623742956        0.4704107718       -4.0653470106
 H        -9.8006619721       -1.1589210232       -4.0077007233
 H        -9.3723958216        0.2398361615       -3.0932740531
 H       -14.1578276801        4.4236468046        2.1812269460
 H       -15.2278762290        3.0550871968        2.2863976177
 H       -15.8854923186        4.6988412776        1.9236852845
 H       -16.1010555523        3.3971864663       -1.5520564423
 H       -16.8001850028        4.4066128814       -0.3497107448
 H       -16.6901945540        2.7134476082        0.0613257975
 H       -11.0284697924       10.0540827284        1.3343781537
 H        -9.4692434937       10.3350162394        0.5758234188
 H        -9.6533960129        8.9825226917        1.6041598993
 H       -11.5370786747        9.0560071199       -2.4050830634
 H       -10.9194452856       10.5036276320       -1.6706452291
 H       -12.5617021973        9.8223143329       -1.1184077963
 H        -3.4310559060        6.1327242701       -2.4672088696
 H        -4.3974556003        6.5325166762       -1.0631623147
 H        -3.5526160022        7.8322613768       -1.9343339470
 H        -4.1962036140        8.0745023834       -4.4095181685
 H        -5.9288846155        8.1843862719       -4.8247653527
 H        -5.0116737583        6.6103016085       -4.9292692962
 H        -5.5489702244        0.3604770402        2.0415358681
 H        -5.0872645789        2.0880802134        2.0692314811
 H        -4.4091748572        1.0165618048        0.7653560824
 H        -6.1537036094        0.6110988570       -1.2688451455
 H        -7.8737380348        0.4688761147       -0.8062603024
 H        -6.6118107047       -0.5972475786       -0.0588253178
 H       -12.0722603456        3.5359050824        3.3759694139
 H       -11.2007445171        4.1268481101        4.8302457587
 H       -12.8206062942        3.3149859342        4.9540946527
 H       -10.5250857308        0.6097896721        6.2592358568
 H       -11.7159641439        1.7796783803        6.5963723238
 H       -10.0879196775        2.2263641180        6.3537807626
 Na      -10.9435280799        0.8706042661        0.9672232317
