117

 C       -13.5950235484        0.0159772519        4.7244486936
 C       -12.5694464504        0.5333059165        3.7019889955
 O       -12.6352528617       -0.0024787914        2.5843951797
 C       -11.5708070988        1.6571110410        4.0954394753
 C       -10.1331530029        1.2784929623        3.4383872090
 O        -9.9129618447        0.0751415015        3.3372670740
 C        -9.0734276605        2.3630046553        2.9654863894
 C        -7.7677299040        1.6425721230        2.5883430638
 C        -7.8622749478        1.2940968306        1.0578904797
 O        -8.8623311465        1.0142161034        0.4072998960
 C        -6.5403017439        1.3002399425        0.3316292386
 C        -6.2593397978        2.9619832775        0.1205787400
 O        -5.7215160318        3.5041856065        1.0543251248
 C        -6.6757629071        3.6904992400       -1.1727203805
 C        -6.1693257063        5.0983469260       -1.2997354741
 C        -5.8906288049        5.6296704032       -2.6709943605
 O        -6.0769849411        5.0416162804       -3.7039316945
 C        -5.2870089518        7.0553037362       -2.7126178531
 C        -6.2405714893        8.0974025707       -1.9851757237
 O        -5.9073593744        8.6908144431       -0.9718058664
 C        -7.5666187211        8.3302437677       -2.6623507599
 C        -8.5687194940        9.0956214116       -1.7532730674
 C        -9.3475157577        8.1045656624       -0.8978865459
 O        -9.2126576282        6.9137044700       -0.8678247659
 C       -10.5926701816        8.8171746245       -0.0336300246
 C       -11.4052609245        7.7481044053        0.7254711687
 O       -11.4436875348        7.6538565023        1.9421924732
 C       -12.2342679254        6.7793949613       -0.1425470740
 C       -13.3228566274        6.0824010480        0.6447542058
 C       -14.1196552052        5.1889353168       -0.2462324441
 O       -14.3282878958        5.4093410756       -1.4530612937
 C       -14.8514892544        3.8349868154        0.3458529572
 C       -13.9205703916        2.6751700020       -0.1646728432
 O       -13.1943559094        2.1512620866        0.6802660519
 C       -13.9475980794        2.1022129096       -1.5495016998
 C       -13.4820026114        0.5690124273       -1.6040171682
 C       -11.9154131956        0.5183198151       -1.8272161926
 O       -11.3122646088        1.5098641581       -1.5288837564
 C       -11.2347358579       -0.7708969991       -2.4325509042
 C       -10.6309506162       -1.7363720262       -1.3264182289
 O       -10.6710182507       -1.4146134676       -0.1332138777
 C        -9.9904445395       -3.0110448222       -1.7544031378
 C       -12.1799935092       -1.5316772031       -3.3735481911
 C        -9.9268070035       -0.3289166265       -3.1616438129
 C       -14.9992385915        3.7924887559        1.8594172193
 C       -16.2084049700        3.7985595925       -0.4620267190
 C        -9.9564241429        9.8511486546        0.8476686336
 C       -11.5383739173        9.4980748640       -1.0466013261
 C        -3.9164197986        7.1951412753       -2.0105813677
 C        -5.1771436477        7.4510224068       -4.3161194583
 C        -5.2562591028        0.7266503956        1.0256017816
 C        -6.6880255468        0.6491775883       -1.0672176277
 C       -12.0978100252        3.0134943154        3.6824407508
 C       -11.2195432504        1.5543819128        5.5550945052
 H       -13.2615179710       -0.3702451099        5.7340289079
 H       -14.2897077009       -0.7172709042        4.3120082810
 H       -14.2408687160        0.8298038245        4.9460909302
 H        -8.8142937468        3.0851526499        3.7786804612
 H        -9.5050168062        2.9506191786        2.1149405705
 H        -7.5960794360        0.7060533571        3.1496345335
 H        -6.8604159383        2.2042554681        2.7351077241
 H        -7.7682069389        3.5438452832       -1.3066893806
 H        -6.1765778578        3.1390127215       -1.9314157461
 H        -5.3029823084        5.1348958241       -0.6689443722
 H        -6.8467605923        5.8380261657       -0.8121432330
 H        -8.0106118288        7.3977168659       -3.0920207223
 H        -7.3975399014        8.9324464186       -3.5768752478
 H        -9.2164398262        9.7704710071       -2.3040619438
 H        -7.9506149752        9.7181168816       -1.0139564499
 H       -11.6042255030        6.1340662509       -0.7185017865
 H       -12.7062647797        7.2901710229       -0.9702089335
 H       -14.0702778133        6.7763254467        1.0127433785
 H       -12.6864273194        5.6659732605        1.3726959100
 H       -13.2977719863        2.6142650871       -2.2361674989
 H       -14.8877479028        2.1186544943       -2.0001727529
 H       -14.0924328119        0.0113102435       -2.3575762976
 H       -13.6973864894        0.2133697466       -0.5814400659
 H        -8.9739555417       -3.0063142809       -1.4570637394
 H       -10.0689428314       -3.2634662205       -2.8754903839
 H       -10.5021372128       -3.8438207959       -1.2917256225
 H       -12.4074817169       -0.9485442148       -4.2871928045
 H       -13.1158551645       -1.8526944286       -2.8888604353
 H       -11.7654526278       -2.5293867945       -3.7272185434
 H       -10.0951521494        0.3025596649       -4.0372734370
 H        -9.4215445797       -1.1506321062       -3.6768782617
 H        -9.2238939344        0.0244660174       -2.4541930683
 H       -14.2376711684        4.3768833729        2.3823588091
 H       -15.0462750401        2.7826838062        2.2460766795
 H       -15.9156505936        4.2702868654        2.1477195584
 H       -16.0464276686        3.8496926735       -1.5723467723
 H       -16.7543066860        4.6477943860       -0.0274569970
 H       -16.7963601262        2.9624127813       -0.2225124201
 H       -10.6772486766       10.4781207855        1.3548309723
 H        -9.4456779843       10.5766671824        0.1998760582
 H        -9.2914917169        9.4209057430        1.5702862939
 H       -11.5284955810        8.9419292788       -1.9606231464
 H       -11.3381555731       10.5557392339       -1.2097759820
 H       -12.5692693301        9.5160891958       -0.7633961888
 H        -3.2324351373        6.3704051436       -2.0249938408
 H        -4.0391644787        7.4451090736       -0.9330102946
 H        -3.4236725960        7.9908594717       -2.4475561213
 H        -4.8783487634        6.5112872826       -4.8390234466
 H        -4.5014075786        8.2845478020       -4.3339515568
 H        -6.1890644647        7.6703663944       -4.6581351477
 H        -5.3712544698       -0.2836737295        1.3433290107
 H        -4.9969699156        1.3820055989        1.8630396601
 H        -4.4481587937        0.7515906664        0.3174447340
 H        -5.7434909906        0.7732494798       -1.5864432098
 H        -7.4606401383        1.1330331425       -1.7087567592
 H        -6.8867459653       -0.4067149190       -1.0665103317
 H       -12.5884883208        3.0129056570        2.7055659248
 H       -11.4247967983        3.7931631264        3.8084896248
 H       -12.8993746306        3.2132416340        4.4349140010
 H       -11.0126501669        0.5204435240        5.8905488756
 H       -11.9617118928        2.0340971854        6.2491152185
 H       -10.3498472676        2.2728605384        5.7629523336
 Na      -11.1571388789        0.7038752836        0.8922623568
