117

 C       -13.1545094190        0.4610207893        5.3595191261
 C       -12.3486910581        0.9436116610        4.1720389291
 O       -12.6380458481        0.7268079799        3.0538671855
 C       -11.1001758371        1.8858040915        4.5654002032
 C        -9.9447854896        1.8545107416        3.5707213764
 O        -9.7068961084        0.7511102147        3.0817914156
 C        -9.0148411250        3.0791156982        3.4168972948
 C        -7.8373747753        2.9364725493        2.5508030185
 C        -7.8947291218        2.0829530028        1.2750114433
 O        -8.8825489317        1.9346176377        0.5532809959
 C        -6.5276660884        1.6913745483        0.6127214319
 C        -6.0208251463        3.1308244554       -0.0899821691
 O        -5.5166954280        4.0091004802        0.6138981805
 C        -6.4340134985        3.4394538788       -1.5243921512
 C        -6.6656398764        4.9262331310       -1.8085890870
 C        -5.9510719356        5.4362821299       -3.0503738039
 O        -5.5522672254        4.6554320223       -3.9037728613
 C        -5.4139463635        6.9062466329       -3.1094293815
 C        -6.4336943539        7.7866537174       -2.3688154802
 O        -6.3202994580        8.0657057838       -1.1810434356
 C        -7.7570132155        8.0809333105       -3.1587144262
 C        -8.8183458427        8.8475266537       -2.4248798544
 C        -9.6257471418        8.0599089939       -1.3587497954
 O        -9.1521612462        6.9634311407       -1.0219993574
 C       -10.7864964224        8.7149619778       -0.5692840046
 C       -11.7796403113        7.6613425537        0.1276819867
 O       -12.2553308279        7.8695515957        1.2339653801
 C       -12.1598092487        6.3835167403       -0.7174188400
 C       -13.0559298746        5.3558299111        0.1236481421
 C       -14.0539455702        4.5536041809       -0.5809945437
 O       -14.1779823735        4.6510687696       -1.7945462394
 C       -14.9672590995        3.4384671495        0.2232412273
 C       -14.0365809808        2.1936566124        0.1256410478
 O       -12.9473410083        2.2282418206        0.7391343219
 C       -14.5476744930        1.0068608865       -0.6544552556
 C       -13.4930962748       -0.1685181734       -0.8701436157
 C       -12.2074996822        0.2275483601       -1.6163631423
 O       -11.8425878678        1.4068694927       -1.5510885535
 C       -11.2184677985       -0.9120026645       -2.2365405310
 C       -10.4715958173       -1.6086523373       -1.0618793786
 O       -10.2397115070       -1.0185897910       -0.0187981853
 C        -9.8877543637       -2.9727391322       -1.2808917727
 C       -12.1018956694       -1.7568610392       -3.1931537983
 C       -10.2179923136       -0.2649285322       -3.1186121415
 C       -14.9528429218        3.7391265902        1.7614961815
 C       -16.4684603689        3.3706737030       -0.2531252271
 C       -10.0299761448        9.4261152108        0.5497222073
 C       -11.6229151395        9.6788539229       -1.3871502538
 C        -4.1306770725        6.7001344814       -2.2505198680
 C        -5.0199643547        7.1671790831       -4.5488157794
 C        -5.4790258062        1.3388081515        1.6599426021
 C        -6.7274970332        0.5951767173       -0.4534660392
 C       -11.6288187989        3.3283731515        4.7703127975
 C       -10.4113217118        1.5513740535        5.8980807481
 H       -12.7656934208       -0.0772955513        6.1359464955
 H       -13.9622210642       -0.1870762261        4.9464358201
 H       -13.7257154139        1.3481749781        5.7139498865
 H        -8.6038869961        3.2995991166        4.3934952697
 H        -9.6509827539        3.9245085232        3.1642158137
 H        -7.0406684341        2.4088701441        3.1160048009
 H        -7.4485498726        3.9464292552        2.4018333398
 H        -7.2907481208        2.7807985385       -1.8420962992
 H        -5.6026122750        3.0535117064       -2.0974094668
 H        -6.5291334268        5.4887894860       -0.8902613045
 H        -7.7609468522        5.0478584211       -2.0637831017
 H        -8.1030219129        7.1215770297       -3.4554793085
 H        -7.5668691961        8.7230416962       -4.0316314034
 H        -9.5068227119        9.1888517395       -3.1487397997
 H        -8.4531597387        9.7819964058       -1.9410201305
 H       -11.3000465750        5.7612127051       -1.0058714998
 H       -12.6721511600        6.7178803716       -1.6639139746
 H       -13.4161525500        5.8989379618        1.0322581591
 H       -12.4152232546        4.6744567256        0.7438555734
 H       -14.8500643133        1.4084178774       -1.6671892673
 H       -15.5480568837        0.7285425623       -0.2093349446
 H       -13.9394668612       -0.9833331951       -1.4357805069
 H       -13.1618843425       -0.5997928922        0.0792073873
 H       -10.5608932093       -3.6861207892       -1.8231186172
 H        -9.6667525231       -3.3331246167       -0.3151637889
 H        -8.9672264737       -2.9842846125       -1.8532083531
 H       -12.4908132639       -1.0483465299       -3.9297840415
 H       -12.8574044905       -2.3803817020       -2.7517138969
 H       -11.4850040968       -2.5088375506       -3.7017974070
 H       -10.5695356012        0.1814390937       -4.0427877666
 H        -9.2751537924       -0.8414928677       -3.2525576689
 H        -9.8592474702        0.6842554366       -2.7164945583
 H       -14.3187705028        3.1167166146        2.3204231277
 H       -15.9795760500        3.4963747616        2.1983174829
 H       -14.6794458551        4.7640458091        1.9096582546
 H       -16.4101206745        3.0924108662       -1.3284961409
 H       -16.8423452157        4.3804430298       -0.1893259026
 H       -17.1743217673        2.6769132964        0.2873782300
 H       -10.7303240767        9.8069127538        1.2735857612
 H        -9.3793012681       10.2304241500        0.2985261765
 H        -9.3838296235        8.6805550597        1.0995775982
 H       -11.8083084692        9.1951854706       -2.3255604656
 H       -11.1183766017       10.5993724769       -1.6455712985
 H       -12.4350068419       10.0646332266       -0.7801840056
 H        -3.3659037420        6.2508615995       -2.8812476558
 H        -4.2325254458        6.0405621455       -1.4244882588
 H        -3.7372133347        7.6647041319       -1.7916002960
 H        -5.5003485897        8.0660334001       -4.8818732283
 H        -5.2456422834        6.1983773962       -5.1300325131
 H        -3.9863111548        7.4383688606       -4.5430022670
 H        -5.9043265087        0.6080949590        2.2875816405
 H        -5.3084915294        2.2124366955        2.2196993035
 H        -4.5808180635        0.8760725055        1.2226646092
 H        -5.7507498506        0.3820082696       -0.9824850358
 H        -7.4928660672        0.9857705973       -1.1590145613
 H        -7.1444818714       -0.3460964536        0.0565084552
 H       -12.2117929905        3.6360872027        3.9023569103
 H       -10.7500910311        4.0517656709        4.9029810864
 H       -12.2341183368        3.4549309400        5.6443244869
 H       -10.2248714650        0.4611040604        6.0128452915
 H       -11.0774999642        1.8971717938        6.6972328721
 H        -9.5114106702        2.0564077691        6.0760534842
 Na      -11.0030593782        0.9963184848        1.0102308074
