117

 C       -13.0122448926        0.3552223194        5.4386652389
 C       -12.0914399483        0.9791415269        4.3223567455
 O       -12.2915262903        0.6576373436        3.2028437835
 C       -10.9828487838        2.0488206068        4.7966325809
 C       -10.0973317794        2.1157438577        3.5222640611
 O        -9.6958606141        1.0383027686        3.0871895380
 C        -9.3739946261        3.3696440356        2.9431347804
 C        -7.9345800766        2.9696081498        2.6436952319
 C        -7.9202361695        2.2274856286        1.3128949324
 O        -8.9063009736        2.0717182694        0.6119597798
 C        -6.4136082376        1.7879339666        0.6349250287
 C        -6.0618663436        3.1532933506       -0.0027036544
 O        -5.3244092867        3.9328168950        0.6290213980
 C        -6.7883807304        3.5116453116       -1.2730521443
 C        -6.5394871568        5.0337643371       -1.6013582710
 C        -5.9325572051        5.3552549043       -2.9965197542
 O        -5.9466351906        4.5527432223       -3.9327099843
 C        -5.3666123564        6.8158831053       -3.0875781643
 C        -6.4651280846        7.7754908833       -2.5622716678
 O        -6.4174426931        8.2832263124       -1.4687368468
 C        -7.6681896167        8.1260685692       -3.5045768504
 C        -8.7479421718        8.7619257369       -2.6890507537
 C        -9.5971081487        7.7951327227       -1.6632378888
 O        -9.4622050964        6.5725595773       -1.5480433037
 C       -10.6334567276        8.6064154255       -0.6864137535
 C       -11.6734218941        7.5188798365       -0.0839051317
 O       -12.0744823875        7.6651470737        1.0390419873
 C       -12.3067213840        6.3659696283       -0.9072228127
 C       -13.0853985573        5.4654684946        0.0278651170
 C       -14.1201763733        4.5531480578       -0.6526135345
 O       -14.3934793547        4.6627289007       -1.8293351710
 C       -14.9062011059        3.3461915282        0.2338731332
 C       -13.9916199759        2.1975082407        0.1841299572
 O       -12.9122811787        2.2114782521        0.8198573748
 C       -14.4598130373        0.9210494496       -0.5768766566
 C       -13.3779944180       -0.1816330843       -0.6193515116
 C       -12.1219614811        0.2309174565       -1.4835154299
 O       -11.8869960161        1.4343111883       -1.6002330326
 C       -11.2624282996       -0.8404399079       -2.0634652523
 C       -10.5617883206       -1.6421545567       -0.8391972010
 O       -10.3794773301       -1.1430492127        0.2533237921
 C        -9.9441898723       -3.0644802320       -1.1446102673
 C       -12.0396474701       -1.8580369314       -2.9155002493
 C       -10.1431144644       -0.1209463871       -2.8810051933
 C       -14.9790424598        3.7745310290        1.7139426981
 C       -16.3419954117        3.2104340005       -0.4892531220
 C       -10.0087504606        9.3980969011        0.4807057408
 C       -11.5865942685        9.4444237998       -1.4824926094
 C        -4.1090514928        6.9443152188       -2.2319681606
 C        -5.1366928111        7.2074885415       -4.5835134390
 C        -5.4434951082        1.3296035107        1.7132317012
 C        -6.7164642954        0.8260236474       -0.5258269887
 C       -11.6470491294        3.4017619437        5.1856004436
 C       -10.1574064752        1.4250423031        6.0493546831
 H       -12.5464687340       -0.2794300748        6.1575543898
 H       -13.8848186047       -0.2069059116        5.0407193489
 H       -13.4612708983        1.1748150556        5.9920991375
 H        -9.5025823235        4.2422664578        3.6245021919
 H        -9.8935372327        3.6985807704        2.0309290093
 H        -7.4622911616        2.3337650330        3.4199633899
 H        -7.3070101090        3.8652361940        2.4763149511
 H        -7.8121286192        3.1854103404       -1.1633001796
 H        -6.4003402261        2.9817530625       -2.1355852822
 H        -5.8650756184        5.5006299319       -0.8898591125
 H        -7.5026598421        5.6004103523       -1.5692578029
 H        -8.0759104729        7.2190246242       -4.0292614488
 H        -7.2484112355        8.7952699613       -4.2485691424
 H        -9.5653055465        9.1732045490       -3.3189977873
 H        -8.4514593619        9.6537684070       -2.0403947622
 H       -11.5578241350        5.8195571404       -1.4770987590
 H       -13.0954584932        6.7305539561       -1.6071298504
 H       -13.5977285850        6.0355990969        0.7570898700
 H       -12.4027170909        5.0461908187        0.7442627989
 H       -14.6547431630        1.2645055118       -1.6277284908
 H       -15.4049111672        0.5483724192       -0.1808616192
 H       -13.7938672503       -1.1125655929       -1.0879717277
 H       -13.0315015981       -0.4474891665        0.3726721323
 H       -10.6759818624       -3.8447017686       -1.5008174353
 H        -9.3683124435       -3.4701764897       -0.3971877967
 H        -9.2995618540       -2.8854878886       -2.0385851671
 H       -12.7026443868       -1.3119433997       -3.5749623105
 H       -12.5089073086       -2.5617268630       -2.2408888804
 H       -11.3423301348       -2.4168576508       -3.6126173857
 H       -10.4540849551        0.5178366087       -3.7095488655
 H        -9.3502126421       -0.7330181461       -3.3389686183
 H        -9.6030254314        0.5394707724       -2.2516116767
 H       -14.0869552983        4.3221493968        1.9189252985
 H       -14.9520843205        2.8902297733        2.4147412269
 H       -15.8322505200        4.3957051196        1.8509412248
 H       -16.2472177005        3.1216515881       -1.5822791105
 H       -16.9497378225        4.0002592573       -0.1231136361
 H       -16.8387042698        2.3353403537       -0.1797389850
 H       -10.6201877583        9.4728774476        1.3470036863
 H        -9.7762809261       10.4214997943        0.2431897939
 H        -9.0734387380        8.8393523158        0.8106837134
 H       -12.0894422915        8.7714733669       -2.1691063024
 H       -11.1548341312       10.3130010872       -1.9845876577
 H       -12.2404251558        9.9303495765       -0.7490057093
 H        -3.5650452143        6.0534172519       -2.1040967786
 H        -4.3704621540        7.3026159499       -1.2182780141
 H        -3.4325509779        7.6671161832       -2.6719601062
 H        -5.8598969060        6.7702693744       -5.2369299159
 H        -4.0989375446        6.7756179372       -4.7841266431
 H        -5.2508349731        8.2276117849       -4.7925044580
 H        -5.8476079322        0.5121357134        2.2941420190
 H        -5.1595300047        2.2295478055        2.3067156517
 H        -4.5148710264        0.9632435724        1.1905535518
 H        -5.9523016037        0.9064067780       -1.2086589999
 H        -7.6194810474        1.1219976143       -0.9713265517
 H        -6.8108817990       -0.1641091586       -0.1898372031
 H       -11.8950309848        3.8718371041        4.2578539252
 H       -10.9392101297        4.0297097591        5.6969665610
 H       -12.5151826041        3.3725361907        5.8294467703
 H        -9.6253868413        0.4602699560        5.7481620538
 H       -10.7470401457        1.2292588641        6.9998806530
 H        -9.4582602325        2.2058001566        6.2758455877
 Na      -11.0335193151        0.9651181690        1.0590845958
