117

 C       -13.3989472303        0.5460251279        5.1599550563
 C       -12.2712755671        0.9478872675        4.1786578397
 O       -12.4917472047        0.6404530750        2.9617904783
 C       -11.1429289827        1.8494369451        4.6301145907
 C        -9.8575880230        1.6679789794        3.6192670450
 O        -9.6558655379        0.6027266997        3.1205726686
 C        -9.0509844827        2.9656422163        3.3594056766
 C        -7.6724355851        2.7401991549        2.6063924450
 C        -7.8456054884        2.0800183750        1.2139248363
 O        -8.9276137511        1.9776864906        0.6364269034
 C        -6.5507595744        1.6813672403        0.5694134443
 C        -6.1215119638        3.0230792981       -0.1551852516
 O        -5.6872577972        3.9164225865        0.4897420219
 C        -6.3438981519        3.2445191921       -1.6709059591
 C        -6.6154678666        4.7780335484       -1.9552152102
 C        -5.7670226791        5.2244340194       -3.1069970221
 O        -5.5878696801        4.5187117139       -4.0463303452
 C        -5.3697585096        6.8583431515       -2.9473113964
 C        -6.5007366477        7.6766692145       -2.2547172776
 O        -6.3253469443        8.2238299916       -1.1998430412
 C        -7.7763322377        7.9667390592       -3.0015996025
 C        -8.7769278330        8.8739093185       -2.2016101915
 C        -9.4834571728        8.0325685514       -1.1549082644
 O        -9.1879314260        6.8923108604       -0.9453532965
 C       -10.6459161622        8.7011063927       -0.3492294024
 C       -11.6945711224        7.6832923728        0.1757504924
 O       -12.2973793226        7.9162453047        1.2002624808
 C       -12.1046347979        6.4080983685       -0.6735245903
 C       -12.9398786439        5.4443955943        0.2079851592
 C       -14.0182935475        4.6095749961       -0.4369951185
 O       -14.1997920478        4.6698566095       -1.6438208937
 C       -14.8829925362        3.5406492641        0.3637893503
 C       -13.9623768774        2.2803381335        0.2449002997
 O       -12.9116945423        2.1932127638        0.8394578943
 C       -14.3782568754        1.2573648894       -0.8347847407
 C       -13.5678427322       -0.0016454810       -1.1463842674
 C       -12.1758503061        0.2930913691       -1.7916001926
 O       -11.7172492553        1.4039611344       -1.6914068387
 C       -11.2631270205       -0.8880122487       -2.3722352236
 C       -10.5484769813       -1.5658877753       -1.1818214443
 O       -10.3972731327       -1.0458315697       -0.0825750106
 C        -9.9659948727       -2.9269478773       -1.4455132623
 C       -12.0747500580       -1.9641184554       -3.1237672022
 C       -10.1905330574       -0.1520897361       -3.1902768660
 C       -15.1716471463        4.0023155845        1.8081533314
 C       -16.1855936556        3.3753998285       -0.4425590219
 C       -10.2096289818        9.6392790481        0.7930317611
 C       -11.5743118156        9.5972691425       -1.3157454274
 C        -4.0842520429        7.0422261129       -2.1315124032
 C        -5.1872521141        7.4689159188       -4.3182325246
 C        -5.3382622346        1.3125611049        1.5219724835
 C        -6.6643385225        0.5009620290       -0.4119416256
 C       -11.7477571457        3.3019237989        4.4484659007
 C       -10.7539098511        1.4891136040        6.0792693164
 H       -12.9955437156       -0.3528366474        5.6992401458
 H       -14.3419762858        0.1602597489        4.8108595811
 H       -13.5781663966        1.3125306634        5.9030865691
 H        -8.8826169007        3.4135320420        4.3682275987
 H        -9.7411208290        3.5955547851        2.7538348302
 H        -6.9064029497        2.2034337085        3.1620716125
 H        -7.1914603473        3.7196819846        2.4091731171
 H        -7.1991412441        2.6980878686       -1.9320057891
 H        -5.5197575272        2.7454807612       -2.2033724071
 H        -6.4201667619        5.3282272110       -1.0069743197
 H        -7.6657745602        4.9281381463       -2.1489240133
 H        -8.2251005711        6.9902736792       -3.3052157667
 H        -7.5027522592        8.5683250223       -3.8619292814
 H        -9.4968417775        9.4595505461       -2.8837289028
 H        -8.2825602094        9.6373087112       -1.5975405610
 H       -11.2630361078        5.8166229343       -1.0610018526
 H       -12.7284299158        6.6437528856       -1.5320691580
 H       -13.2506371359        6.1893214137        0.9270684539
 H       -12.4812330926        4.7689415310        0.9062034047
 H       -14.6320868851        1.7828576902       -1.7543799597
 H       -15.3603697550        0.8731749466       -0.5322232020
 H       -14.2435952947       -0.7169264820       -1.6577481998
 H       -13.3854869311       -0.4628203282       -0.1503322877
 H       -10.6942035814       -3.5729230237       -1.8285802192
 H        -9.3927641962       -3.4071580853       -0.5625592239
 H        -9.2910510475       -2.8291270880       -2.2893344306
 H       -12.9103210412       -1.4585322963       -3.6496292828
 H       -12.5541833592       -2.6977740733       -2.4127871998
 H       -11.5105469208       -2.6309748401       -3.7726114544
 H       -10.6712695069        0.6267476672       -3.7297468010
 H        -9.6269231108       -0.7914793313       -3.7915171112
 H        -9.4556368139        0.4867518213       -2.7363724615
 H       -14.4190538810        3.6374632940        2.5593879657
 H       -16.0728445602        3.6133282833        2.1340258835
 H       -15.2154400203        5.1003027947        1.8124973501
 H       -16.0473611912        3.4029522955       -1.5021481764
 H       -16.8338922027        4.2315294716       -0.1763909843
 H       -16.6750061752        2.4802964363       -0.1060830241
 H       -11.0144746598       10.3777963031        1.0106687620
 H        -9.2497643301       10.1532199627        0.5925519181
 H        -9.9999683191        9.1490899347        1.6861945770
 H       -11.9565096746        9.0722894722       -2.1793347204
 H       -11.1020520688       10.4541028708       -1.7718701305
 H       -12.3369300607        9.9711931405       -0.6594158568
 H        -3.2351846106        6.6236033177       -2.6551220013
 H        -4.0809761827        6.5446004706       -1.1689839816
 H        -3.9153587198        8.0561292495       -1.9149766597
 H        -5.2844513936        8.5918770040       -4.2353453668
 H        -5.9952777269        7.0557402872       -4.8211610704
 H        -4.1953740089        7.1352140566       -4.7452478737
 H        -5.6148120386        0.6032384604        2.3378169728
 H        -4.9865546225        2.2609314131        1.9417381039
 H        -4.6185002426        0.8756871482        0.8857365614
 H        -5.7784410436        0.3765294318       -0.9813241658
 H        -7.4961250294        0.6839633294       -1.0371552922
 H        -6.8567102075       -0.3495820626        0.1335094512
 H       -11.8941030468        3.6566041652        3.4435713553
 H       -11.1636826834        3.9806933822        5.0008831352
 H       -12.7340381939        3.2641231497        4.9188166202
 H       -10.2011101230        0.5405728946        6.0839363538
 H       -11.6122157525        1.4307819724        6.7871134463
 H       -10.0307920011        2.2923576578        6.5267361911
 Na      -11.0612674878        0.9480968256        1.0091708968
