117

 C       -12.3995161920        0.0137024898        5.8571403519
 C       -11.7492367238        0.8495405137        4.7313722332
 O       -12.0256693930        0.5377003191        3.5794148370
 C       -10.7190764636        1.9770180348        5.1408395523
 C        -9.6262894436        2.0732719524        4.0037276734
 O        -8.6789037587        1.3001626904        3.9378234452
 C        -9.7558142042        3.3534294903        3.0232468824
 C        -8.5575181911        3.5365798584        2.0929530320
 C        -8.2721784371        2.4238317469        1.0664446524
 O        -9.0686701056        1.6159789922        0.6087698678
 C        -6.7962913555        2.2247294487        0.7199939267
 C        -5.9562753449        3.5872788359        0.3059534053
 O        -4.9163570427        3.9860509382        0.8116926347
 C        -6.5696547562        4.3218315232       -0.9240485849
 C        -5.7547676991        5.4621426985       -1.3832877652
 C        -6.1218952339        5.8324004543       -2.8971676976
 O        -6.7551344190        5.0690722468       -3.5736644478
 C        -5.6575292706        7.2489948962       -3.5217934119
 C        -6.9318290276        8.0920026129       -3.4889115337
 O        -7.1562637884        8.9325195800       -2.6308953695
 C        -8.0392040876        7.8007560531       -4.4833878839
 C        -9.3786034126        8.2407153460       -3.9315684733
 C        -9.8001631535        7.2467456070       -2.8390816254
 O        -9.4305109286        6.1348728912       -2.7368523672
 C       -10.5266195279        8.0275404842       -1.5499385558
 C       -11.0316591915        6.8516149538       -0.6672086767
 O       -10.3257794569        6.2132898625        0.0860009015
 C       -12.4825287383        6.4750668706       -0.9759752878
 C       -12.8362409448        5.0685023371       -0.3119048011
 C       -14.2904795620        4.6484392841       -0.6705343449
 O       -14.8574395718        5.0693429482       -1.6373029131
 C       -15.0218215907        3.5374477173        0.2396126356
 C       -14.2127926040        2.2027837558        0.2527138846
 O       -13.3591008684        2.0269588689        1.1488494792
 C       -14.4351878471        1.1576327024       -0.8913873084
 C       -13.5565764650       -0.1036332662       -0.6824771451
 C       -12.0194943206        0.1061799871       -1.0733186378
 O       -11.5278025974        1.2014947838       -1.0074594651
 C       -11.0357798037       -1.0930097631       -1.3044665974
 C       -10.6574724164       -1.7096941797        0.1106280511
 O       -10.8037743843       -1.2246298820        1.1979549579
 C        -9.8985347343       -3.1020613016        0.0041357751
 C       -11.5947925454       -2.2042849603       -2.2903906938
 C        -9.7479705057       -0.5610680867       -1.8280068515
 C       -15.1913637655        4.1312986854        1.6860690001
 C       -16.4027186332        3.3541459110       -0.4132430830
 C        -9.5236081615        8.8420701655       -0.7431378620
 C       -11.6841942661        8.9515161503       -1.9680674909
 C        -4.5611517532        7.8665716882       -2.5474354795
 C        -5.1719609864        7.1621565553       -4.9846462043
 C        -6.0776335853        1.6920121471        2.0095547253
 C        -6.6922191391        1.2494858985       -0.4284050952
 C       -11.6245798174        3.2301524703        5.3503383168
 C       -10.0277495236        1.5712108585        6.4436487443
 H       -11.6630358921       -0.1710706714        6.7257432717
 H       -12.7981656998       -0.9366965794        5.6232602778
 H       -13.1579174728        0.6184611530        6.3339758640
 H        -9.9110712881        4.1920674890        3.6995617827
 H       -10.6657658478        3.1907371507        2.4088803951
 H        -7.6067761917        3.5912222121        2.6222811285
 H        -8.6319532230        4.4701353314        1.5349533478
 H        -7.5420469798        4.7635544407       -0.7243811761
 H        -6.7238421721        3.6866670478       -1.7835148242
 H        -4.6904719544        5.3065760511       -1.3152100083
 H        -6.0007877566        6.3389417100       -0.6986073761
 H        -7.9975561753        6.8012143462       -4.8875789123
 H        -7.8097158957        8.3912746171       -5.3630041909
 H       -10.1157296264        8.2303949626       -4.6586504484
 H        -9.2960778016        9.1899661194       -3.3897590983
 H       -12.7459579419        6.3061449624       -2.0057156029
 H       -13.1716090326        7.3138579101       -0.7435366910
 H       -12.7494481561        5.2824491242        0.7632498924
 H       -12.2121075261        4.2164623227       -0.7530448784
 H       -14.5500134740        1.5895228021       -1.9134347150
 H       -15.4460796686        0.8309307365       -0.5649435915
 H       -13.8904332782       -0.9902532814       -1.2493183625
 H       -13.5962424011       -0.4368397964        0.3606354717
 H       -10.4994090603       -3.9012454847       -0.3460300271
 H        -9.4278761012       -3.4397290544        0.9795915348
 H        -9.0724250758       -2.9948291827       -0.6839912148
 H       -11.3264930002       -1.8266039129       -3.2911082031
 H       -12.6554251659       -2.5191336770       -2.1379537822
 H       -11.0401310329       -3.1109739895       -2.0778229892
 H        -9.8089261074       -0.0804695398       -2.7610928937
 H        -8.9562196911       -1.2684369590       -1.7469527524
 H        -9.3989804935        0.3059296206       -1.2548840071
 H       -14.4393150866        3.8782334831        2.3819741526
 H       -16.1343264654        3.6722883234        2.0230430557
 H       -15.3006218161        5.2103018918        1.6088106938
 H       -16.2076362701        3.1102564693       -1.4231133550
 H       -17.0560561919        4.1973407891       -0.3647671600
 H       -17.0280584627        2.4556343026       -0.0857213441
 H       -10.0039004548        9.7953553655       -0.4545432036
 H        -8.5821899658        9.0631327727       -1.2434863170
 H        -9.1815166057        8.3137224423        0.1241876613
 H       -12.4130358904        8.3703780056       -2.4972740999
 H       -11.3457729224        9.7342402630       -2.6299313899
 H       -11.9920537105        9.5206321269       -1.0983736571
 H        -3.8562915027        7.1009461450       -2.2335444310
 H        -5.1057426360        8.1602364421       -1.7020231569
 H        -4.1569908584        8.8033649363       -2.9362555072
 H        -5.7413651002        6.3897058623       -5.5563358631
 H        -4.1680730237        6.9099588797       -5.2066022046
 H        -5.4991946743        8.0755179298       -5.5487365192
 H        -5.5915303115        0.7273073112        1.8667811552
 H        -6.8266005743        1.5673350747        2.7526085121
 H        -5.2495614578        2.3307329997        2.3765727936
 H        -5.6395674444        1.1414969587       -0.6643349465
 H        -7.1902483549        1.5788785066       -1.3294387515
 H        -7.0258609703        0.2708560867       -0.1988738573
 H       -12.0601173508        3.5640203588        4.4364654867
 H       -11.2301964180        4.0844971438        5.9474758987
 H       -12.4414893090        2.9294261672        5.9212663198
 H        -9.5365715793        0.5958758098        6.3504488884
 H       -10.7079809484        1.6506291787        7.3064191468
 H        -9.3485052994        2.4820062767        6.6783982635
 Na      -11.2065633698        1.1239860825        1.4589759374
