117

 C       -12.9877211996        0.4168604005        5.6449559300
 C       -11.9450369312        0.8255282516        4.5867946672
 O       -12.0973997238        0.3180242322        3.4822727737
 C       -10.8620736923        1.9079474345        4.9227260344
 C        -9.6777375784        1.8757133664        3.8402202339
 O        -9.0281055271        0.9258631946        3.5280737927
 C        -9.5224998563        3.3370856577        3.1589434455
 C        -8.2952778590        3.5364030156        2.2647565193
 C        -8.1336937626        2.3520595123        1.2297767602
 O        -9.0912173927        1.6860078416        0.8622919824
 C        -6.7305911909        1.9962555439        0.7350474079
 C        -5.9513473460        3.2206090442        0.0929533570
 O        -4.8662749453        3.7002309551        0.4606314901
 C        -6.7058942181        3.8655216276       -1.0900354815
 C        -6.1654911682        5.3363478341       -1.4172074046
 C        -6.0862512715        5.6133630458       -2.9102282588
 O        -6.3386498547        4.7269526900       -3.7541154206
 C        -5.4767342159        7.1082525332       -3.3174514350
 C        -6.6525192160        8.1082147524       -3.0639363925
 O        -6.5904488268        8.8830103144       -2.1378887315
 C        -7.9255760392        8.0488946455       -3.9020379032
 C        -9.2103531032        8.6030332440       -3.3556482814
 C        -9.7564631696        7.7036598206       -2.2988189114
 O        -9.6022566563        6.5206566891       -2.4036829216
 C       -10.6430029307        8.3056582300       -1.1493760399
 C       -11.3127832319        7.1775193188       -0.2904139131
 O       -11.0537684670        6.8890445915        0.8286302031
 C       -12.4617624103        6.3996075624       -1.0379519134
 C       -13.0929497270        5.2797651840       -0.1796708240
 C       -14.2401403957        4.6136736464       -0.8191962595
 O       -14.7106580451        4.8642983862       -1.9028169813
 C       -15.0459723996        3.4450029560        0.1316891803
 C       -14.0212642286        2.3248356621        0.3027664489
 O       -13.1658205438        2.5039927459        1.1424388783
 C       -14.2804782251        1.0448090550       -0.5253537698
 C       -13.2582301173       -0.1178092319       -0.4750705278
 C       -11.9590166546        0.2953946719       -1.2691500817
 O       -11.7032553660        1.4521702705       -1.5211167279
 C       -11.0069884834       -0.9396639230       -1.7361128145
 C       -10.5303850049       -1.7217066122       -0.4380656407
 O       -10.6272884819       -1.2384059358        0.6796095701
 C        -9.8970405916       -3.1038524265       -0.5030309162
 C       -11.9271954144       -1.7840267681       -2.6438325518
 C        -9.7827948226       -0.4853913182       -2.4284257829
 C       -15.2987417745        3.8235118852        1.6544444236
 C       -16.3620629377        3.1691343122       -0.5251144976
 C        -9.7129734995        9.1313127774       -0.2602759618
 C       -11.7723075675        9.1963369621       -1.7836681492
 C        -4.3198578703        7.4836076522       -2.4383302937
 C        -5.0891587027        7.0509124727       -4.7960825836
 C        -6.0063559290        1.4418342483        1.9648411281
 C        -6.6612993568        0.8815901188       -0.3635610932
 C       -11.5770144283        3.2510741314        5.1826045644
 C       -10.0636623257        1.4807822450        6.2415743261
 H       -12.7893356810       -0.6551476799        6.0417335832
 H       -13.9784838690        0.5509798738        5.3595115998
 H       -12.8083824952        0.9214029774        6.5532055678
 H        -9.6435941427        4.1400909277        3.8755717785
 H       -10.4294519422        3.5534415090        2.5836128940
 H        -7.3731235430        3.6196754476        2.8510188883
 H        -8.5058478321        4.4603634464        1.6878669195
 H        -7.7253912133        3.9718578906       -0.7678850139
 H        -6.6944433406        3.2018334109       -1.9263609538
 H        -5.1256977453        5.3321628352       -0.9682628751
 H        -6.7835731072        6.1323590954       -1.0130545505
 H        -8.0463146023        6.9855269843       -4.0635117065
 H        -7.8457154027        8.4166483038       -4.9438412513
 H        -9.9385062575        8.5308525604       -4.2279472286
 H        -9.2490962807        9.5832594689       -2.9306363127
 H       -11.9943823105        5.9511632753       -1.9870036035
 H       -13.2891684628        7.0272819715       -1.4130882793
 H       -13.3256883206        5.6645671845        0.8468017178
 H       -12.2547304621        4.5553656275       -0.0700035316
 H       -14.3403056290        1.3994360080       -1.5927335415
 H       -15.3028561230        0.5925027426       -0.2360234995
 H       -13.6944793285       -1.0002081045       -0.9079486802
 H       -12.9015823280       -0.4176950183        0.5218707389
 H       -10.4621591328       -3.7597617342        0.1643939247
 H        -8.8869347181       -3.1971128949       -0.2250421255
 H        -9.9929035335       -3.4829821810       -1.5748239735
 H       -12.2790085322       -1.1493137290       -3.4747476071
 H       -12.8677162029       -1.9212865706       -2.1038739962
 H       -11.3917650872       -2.6725636518       -2.9458863801
 H        -9.9279825104       -0.2675825829       -3.4727487079
 H        -8.9786413646       -1.1579073641       -2.5460210288
 H        -9.3508432969        0.3463635322       -1.9166652991
 H       -14.3202073490        4.1986061364        2.0638085941
 H       -15.5826640750        2.9496609266        2.1186367148
 H       -16.1255020942        4.5164365249        1.8131958238
 H       -16.2933438393        3.1541763666       -1.6009299288
 H       -17.0663146133        4.0082964877       -0.4215758303
 H       -16.8031135951        2.2775787829       -0.1784710448
 H       -10.1601922923        9.2997893718        0.7409318109
 H        -9.3186113124       10.0804555343       -0.6799222022
 H        -8.8635459924        8.5275196175       -0.0307665124
 H       -12.5410532866        8.6354502506       -2.2641465462
 H       -11.2810096761        9.8096206215       -2.4916207857
 H       -12.3535612029        9.6388345095       -1.0276082820
 H        -3.4236822377        7.1215211917       -2.8771755818
 H        -4.4373671893        7.0441509212       -1.3985724031
 H        -4.2051036890        8.4941224875       -2.3458809033
 H        -5.5688704667        6.2169715710       -5.3103253513
 H        -4.0540092682        6.9643284464       -5.0057817706
 H        -5.2208734589        8.0144406547       -5.3184318336
 H        -6.7055638989        1.1451628904        2.7892950800
 H        -5.2376913386        2.1498719662        2.3449511500
 H        -5.4244474828        0.6199535212        1.6364536219
 H        -5.6947147431        0.7634479047       -0.6974519243
 H        -7.2905825540        1.2183534705       -1.1859849081
 H        -7.0416358442       -0.0270904974       -0.0364081095
 H       -11.7518891335        3.8628119846        4.3125253522
 H       -10.9001804360        3.8150821046        5.7075956628
 H       -12.5164092510        3.1749240864        5.7417492312
 H        -9.6719981706        0.4404087522        5.9992046690
 H       -10.7691342769        1.4755752650        7.1202777106
 H        -9.1257985039        2.0940155053        6.3430460705
 Na      -11.1434845487        1.0126233175        1.4683460617
