117

 C       -12.8103847966        0.2676369298        5.7153778164
 C       -11.8800507377        0.8026227316        4.6522748797
 O       -11.8612739102        0.3564420001        3.5210866314
 C       -10.8605284604        1.8962075731        5.0464493603
 C        -9.7871042707        2.0676562869        3.9011504118
 O        -8.9656175833        1.1595766936        3.7025348803
 C        -9.6982236850        3.4188520079        3.0262063537
 C        -8.3701257935        3.3630180136        2.2310751746
 C        -8.2098219208        2.2272236263        1.2568938405
 O        -9.0913714494        1.5976922336        0.7093016228
 C        -6.7665137435        1.9457499247        0.7369831988
 C        -5.9864063373        3.2436215595        0.0777511267
 O        -4.9703472810        3.6047840377        0.5375340802
 C        -6.5746471314        4.0706782302       -1.0383896235
 C        -5.9007434083        5.3934005418       -1.3966548702
 C        -5.9756768557        5.7267180672       -2.9017686839
 O        -6.3728099635        4.8992300162       -3.6461713419
 C        -5.5610804213        7.1272135178       -3.3227076017
 C        -6.8421397355        8.0609799823       -3.2799990623
 O        -6.8761940160        8.9539141180       -2.4680891902
 C        -8.0108175613        7.8881580140       -4.2037350655
 C        -9.2168055628        8.5675848717       -3.4834402848
 C        -9.8220289721        7.6162642152       -2.4750567539
 O        -9.5084478314        6.4514615908       -2.4855979155
 C       -10.5773098049        8.2839135967       -1.3370537550
 C       -11.2124258748        7.0592707326       -0.4830982537
 O       -10.6460210882        6.6738845463        0.5385023105
 C       -12.5043936961        6.3759119318       -1.0144333274
 C       -13.0000105585        5.1793169270       -0.1140530938
 C       -14.3456988887        4.6042432118       -0.6904411198
 O       -14.7429372409        4.9133849071       -1.7701663064
 C       -15.0062225397        3.4522595136        0.2490892359
 C       -14.0645027769        2.2035355489        0.2495209320
 O       -13.0146046033        2.2295799609        0.9093654574
 C       -14.3470931110        1.1037915703       -0.7628081959
 C       -13.4280400677       -0.0712903203       -0.5850039783
 C       -11.9599686745        0.2614724202       -1.1407413898
 O       -11.5082206247        1.3688419708       -1.2384214386
 C       -11.1021713046       -0.9349056800       -1.4918537731
 C       -10.5457442511       -1.6102278888       -0.2134601369
 O       -10.6854462491       -1.1595818834        0.8939646202
 C       -10.0359642846       -3.0608041722       -0.3680735189
 C       -11.6942828589       -2.0004312853       -2.4572379466
 C        -9.8328953031       -0.3408773717       -2.1750029331
 C       -15.3595075559        4.1181220440        1.6176394053
 C       -16.3151081411        3.0423802666       -0.5079864653
 C        -9.6541263753        9.0729775368       -0.4166099069
 C       -11.7453131169        9.2539172291       -1.8360458096
 C        -4.4122827763        7.7322560352       -2.4629677498
 C        -5.2303754458        7.1129790546       -4.8188949806
 C        -5.8687780841        1.5554537620        1.9792840828
 C        -6.8751394102        0.8807663775       -0.3564898648
 C       -11.6620091803        3.2203980412        5.3946924618
 C       -10.1173902423        1.3923183040        6.3183251097
 H       -12.5929473117       -0.7317862928        5.9780233606
 H       -13.8623035687        0.3266976101        5.3367656789
 H       -12.7251579114        0.8019025023        6.6856420559
 H        -9.7794826373        4.3854239834        3.5621886470
 H       -10.6054343662        3.4306158134        2.3848160608
 H        -7.5128127997        3.3149716826        2.9037185008
 H        -8.3041474971        4.2754691453        1.6479946438
 H        -7.6466512820        4.2789377163       -0.8271695299
 H        -6.5580046433        3.4516912323       -1.9719915358
 H        -4.8761393724        5.2581897748       -1.1353549375
 H        -6.3303253821        6.2557271781       -0.8425773093
 H        -8.1098943738        6.8909529203       -4.6437181289
 H        -7.7982501914        8.5254401629       -5.0615695222
 H        -9.9701918823        8.7845710170       -4.1733075942
 H        -8.9278771852        9.4668002405       -2.9173330251
 H       -12.2795297664        6.0237300323       -2.0012875586
 H       -13.3361401658        7.0743158990       -1.1991831779
 H       -12.9669075674        5.5604618683        0.9106398770
 H       -12.2692543342        4.3261138326       -0.2419319096
 H       -14.3003119982        1.5475062420       -1.7444987657
 H       -15.3214117014        0.7468372276       -0.5799845182
 H       -13.7938716114       -0.9894335203       -1.1196047041
 H       -13.3847868329       -0.3478921212        0.4792775642
 H       -10.5323678855       -3.7078507427        0.3350543244
 H        -8.9423651108       -3.0868678235       -0.0391171035
 H       -10.0363311359       -3.4290193516       -1.3294820907
 H       -12.5347664820       -1.5176736016       -2.9084237982
 H       -12.1337256682       -2.8527510876       -1.9433749628
 H       -10.8864093947       -2.2977831072       -3.1124906504
 H       -10.0876143706        0.1824493819       -3.1035040520
 H        -9.0879687507       -1.0783355561       -2.5388149965
 H        -9.2484054721        0.3843521248       -1.5699519943
 H       -14.5797567074        4.7029262663        2.0142282192
 H       -15.6637907124        3.2695716810        2.3081966036
 H       -16.2553304993        4.7210806024        1.4615465483
 H       -16.1568954022        2.7071105671       -1.5283956585
 H       -17.0067781253        3.8343334864       -0.6890792390
 H       -16.8359946577        2.2077033354        0.0604246856
 H       -10.0640348563        9.0865432889        0.5823289101
 H        -9.4711152473       10.0674786097       -0.7691972557
 H        -8.6369319787        8.6556163768       -0.3646346042
 H       -12.2455196549        8.8221260029       -2.7033359123
 H       -11.3551418628       10.1972745724       -2.1909436621
 H       -12.4899707712        9.2627768153       -1.0339701903
 H        -3.6772372941        6.9328887058       -2.1980722242
 H        -4.7638024918        8.2319084819       -1.6133015575
 H        -3.8543948618        8.5123407205       -3.1103127994
 H        -6.0125165086        6.8178135510       -5.5205691545
 H        -4.4868833771        6.3323716505       -5.0622775977
 H        -4.6749157247        7.9932379111       -5.1016209444
 H        -6.4012615381        1.0187753037        2.7285579102
 H        -5.5073984495        2.4624994714        2.4088504001
 H        -4.9929242137        0.9367626862        1.6856028771
 H        -5.7954394925        0.8330621150       -0.7721712921
 H        -7.5514836181        1.1489104005       -1.1801782671
 H        -7.0632537638       -0.1728229710        0.0261666668
 H       -12.3545769418        3.4552149794        4.5873564711
 H       -11.0650233339        4.1951868206        5.4720071987
 H       -12.2757307622        3.0860141944        6.2591446865
 H        -9.3596607333        0.7157845993        6.0762720121
 H       -10.7714296429        1.0548262471        7.0834209596
 H        -9.6222165816        2.3094410382        6.6398083410
 Na      -11.1943777119        1.0278068842        1.4265680983
