117

 C       -10.7929069326       -0.1796195443        6.2182067117
 C       -10.7397672339        0.8370452180        5.1647504015
 O       -10.9856652954        0.4693977214        4.0122130132
 C       -10.5169130477        2.4841829664        5.4920607768
 C        -9.5656275422        3.0840511258        4.3730271915
 O        -8.3281480917        2.9149584724        4.4725552322
 C       -10.2221869592        3.6706912049        3.1356173544
 C        -9.2978974011        4.2528800508        2.0279843270
 C        -8.4694688704        3.0738519173        1.3585232300
 O        -8.9904312794        1.9676806424        1.2669681848
 C        -7.1065396994        3.3348079860        0.7032671781
 C        -6.8685867940        4.6161311934       -0.1489291425
 O        -7.2919811731        5.7252481456        0.1571531799
 C        -6.1485541913        4.4455864780       -1.4632983489
 C        -6.2080420165        5.8225328691       -2.1855226633
 C        -5.3704473270        5.8234151395       -3.5724805895
 O        -4.7565074245        4.8515852789       -3.8902241988
 C        -5.3479635333        7.1266584851       -4.3899312730
 C        -6.7623420864        7.7427726696       -4.1361216941
 O        -6.8082691492        8.5494296224       -3.2043341181
 C        -7.9677472226        7.3335884196       -4.9844863939
 C        -9.3184075793        7.5333368588       -4.2571201494
 C        -9.8616312981        6.6384027977       -3.1424095586
 O        -9.7862664433        5.4439459544       -3.2020100272
 C       -10.4965343484        7.3397662112       -1.9182155723
 C       -11.2317806362        6.2779851621       -0.9433780951
 O       -10.7448447667        6.3028741633        0.1908771894
 C       -12.2838153471        5.3750318174       -1.4731450538
 C       -13.0559510638        4.7277822505       -0.3046204060
 C       -14.3508629112        4.0920194311       -0.7071382507
 O       -14.6944014304        4.1449953689       -1.8720610185
 C       -15.1079125800        3.2447709120        0.3856683516
 C       -14.1547145036        1.8922415552        0.7291769071
 O       -13.1651526377        1.9240627704        1.4437282651
 C       -14.5771086813        0.6209647413       -0.0159620952
 C       -13.6025062564       -0.5728342674       -0.1556565217
 C       -12.2080656940       -0.1669478781       -0.6675665166
 O       -11.8912054668        0.9882150076       -0.8206313968
 C       -11.1048493964       -1.3175010425       -0.7711610989
 C       -11.0914562345       -2.0529935137        0.6270023386
 O       -11.3825678550       -1.3307221577        1.5653949037
 C       -11.0691874109       -3.4941693535        0.7315123762
 C       -11.5521946590       -2.2572556248       -1.9044716955
 C        -9.7555194058       -0.6922723306       -1.2238972157
 C       -15.3383159825        4.0687779849        1.7792951106
 C       -16.5057614849        2.8774680958       -0.2072386588
 C        -9.3354072127        8.0261783204       -1.1006133313
 C       -11.5510862234        8.4827475249       -2.4134397910
 C        -4.2471317480        8.0758338915       -3.7444843098
 C        -5.0981145537        6.9486478751       -5.8802924853
 C        -6.0919972298        3.5538960120        1.9732263392
 C        -6.6923592936        1.9827692914       -0.0020199941
 C       -11.9348474333        3.1136540511        5.6636380261
 C        -9.6876159112        2.6559887740        6.7936921397
 H        -9.8275159215       -0.4284645569        6.5474110988
 H       -11.4093134089       -1.0505193763        5.9217798992
 H       -11.2200792815        0.1690874236        7.1883112838
 H       -10.8268475920        4.5099966569        3.4788901069
 H       -11.0792325284        3.0916383375        2.7339398806
 H        -8.6883773447        5.0749216639        2.4267300021
 H        -9.9321514587        4.7264254570        1.2522393606
 H        -6.6448736693        3.7300735709       -2.1831278904
 H        -5.0882035816        4.1000318983       -1.3248978405
 H        -5.8632781848        6.5331717095       -1.5153654629
 H        -7.2741688236        6.0237334261       -2.4487676955
 H        -7.7560220243        6.3235892961       -5.2983762128
 H        -7.9408980262        8.0552910018       -5.8281592080
 H       -10.0503234114        7.5352839383       -5.0745978348
 H        -9.3904556884        8.5849515649       -3.9328410436
 H       -11.8692540549        4.6861373133       -2.2199392272
 H       -13.0188312705        5.9721917348       -2.0465726512
 H       -13.2064433285        5.4348981111        0.4453687973
 H       -12.4292511829        3.9634231025        0.1759064753
 H       -15.0228035217        0.9910415708       -0.8833065780
 H       -15.3500585856        0.1486314648        0.5834411451
 H       -14.1092533492       -1.2946418256       -0.8115047254
 H       -13.4345054551       -1.0198261680        0.8706024352
 H       -12.0111734916       -3.9560774179        0.3735945203
 H       -11.0129317838       -3.8063435534        1.7895663988
 H       -10.2713061912       -3.8522274645        0.1470990544
 H       -11.8511052735       -1.7076761297       -2.8302338464
 H       -12.3929388622       -2.9270531459       -1.6318786505
 H       -10.7671455173       -2.9492408632       -2.2845371359
 H        -9.9899275933        0.1017640131       -1.9841219863
 H        -9.1082058656       -1.4834852944       -1.6123269657
 H        -9.2172521345       -0.2167417668       -0.4339853432
 H       -14.4172117848        3.9810196978        2.4105953628
 H       -16.0880910046        3.6957594125        2.3995764414
 H       -15.4860516017        5.1189731409        1.5967065351
 H       -16.5142330981        2.4847519630       -1.2590629656
 H       -17.0169223317        3.8672206658       -0.1126871844
 H       -17.0690347264        2.1974689738        0.3445267705
 H        -9.8093849562        8.6778211702       -0.3612782575
 H        -8.6735759996        8.6134391165       -1.7308146350
 H        -8.6438594342        7.2839125983       -0.6449995170
 H       -12.1928720875        8.2179577403       -3.2350991800
 H       -11.0621232199        9.4297302127       -2.5225066085
 H       -12.0797837611        8.7310462534       -1.5297107574
 H        -3.3182975966        7.8289097981       -4.2202099663
 H        -4.1405422301        7.9341310564       -2.6684886188
 H        -4.6256030694        9.1293897787       -3.9117605793
 H        -5.6217699634        6.1507161001       -6.3740118485
 H        -3.9705876133        6.7030345537       -6.0262202564
 H        -5.2974682864        7.8617540271       -6.4317452973
 H        -5.6510918528        2.5887169421        2.2430847819
 H        -6.5698551109        4.0292610720        2.8864544946
 H        -5.3127437696        4.2454692688        1.6768650553
 H        -5.6610738656        1.9326828697       -0.3293054348
 H        -7.3231802371        1.8215580743       -0.8119676829
 H        -6.9330234106        1.1801863005        0.6915698158
 H       -12.4894964091        3.1980517753        4.7257679460
 H       -11.7995158528        4.0111158463        6.1388728541
 H       -12.5148465880        2.5458448119        6.4072247669
 H        -8.7376672648        2.1397685538        6.6854787483
 H       -10.1906242940        2.1260173078        7.6700728520
 H        -9.6312887408        3.6799125345        7.1900251322
 Na      -11.0762946449        1.0840429966        1.6768171948
