117

 C        -8.9673783737        1.1232722747        6.0626069026
 C       -10.1095139611        1.6024345536        5.1631681458
 O       -10.6844382169        0.8001033801        4.4771141289
 C       -10.5108208561        3.1558553992        5.2990084074
 C        -9.5649045280        3.8327925558        4.2157388848
 O        -8.3735487753        3.7472319447        4.3710693677
 C       -10.1882385591        4.4529495013        2.9657719042
 C        -9.2446977535        4.5282917573        1.7544531794
 C        -8.5693096683        3.1740684240        1.4557804060
 O        -9.1409828817        2.1445054490        1.6626486961
 C        -7.0191347619        3.2508212526        0.8928115570
 C        -7.0841162984        3.9880926906       -0.4890972627
 O        -7.3422673809        3.3268458328       -1.5008915625
 C        -6.7506711495        5.4881521327       -0.5508955121
 C        -6.9095318091        6.1944557003       -1.8894465901
 C        -6.0846554399        5.5344847154       -2.9776220527
 O        -5.4421049029        4.5101199894       -2.8556955768
 C        -6.0150355740        6.3319432564       -4.2666715168
 C        -7.2951703976        7.0986677379       -4.4576789508
 O        -7.3705865695        8.1773210813       -3.8342062582
 C        -8.4365436716        6.7708272421       -5.3496618826
 C        -9.7824338279        7.4246302797       -4.9095882890
 C       -10.2000864441        6.7846187372       -3.5995931622
 O        -9.8647127510        5.6560223262       -3.4157964535
 C       -10.9900232585        7.6393508696       -2.4713416419
 C       -11.1256631018        6.6290107975       -1.1863069746
 O       -10.6569566876        6.8084736168       -0.0940343919
 C       -11.8316452032        5.2628151073       -1.4687339745
 C       -12.6665205980        4.8745149487       -0.2470376320
 C       -13.6781033847        3.8280810484       -0.6071270118
 O       -13.7568432717        3.2996820774       -1.7006016770
 C       -14.6643929003        3.2120406861        0.6166109119
 C       -14.1874451409        1.6887068123        0.7813794706
 O       -13.5027127883        1.2929411862        1.7147511810
 C       -14.4792564453        0.6451742690       -0.3749546095
 C       -13.5780874139       -0.5785226565       -0.2089817024
 C       -12.1149914534       -0.3209708882       -0.3721283880
 O       -11.6328390723        0.7818354101       -0.3073980888
 C       -11.0236042300       -1.5070947309       -0.5025741885
 C       -10.5308865316       -1.9097339831        0.9360029284
 O       -10.4842076482       -1.1249918285        1.8685080780
 C        -9.9337714085       -3.2934636647        1.1718947237
 C       -11.6594413374       -2.6664773723       -1.2957951772
 C        -9.7476746457       -0.8971652009       -1.2394340125
 C       -14.7151195311        3.8693653641        2.0917869328
 C       -16.0872002449        3.3933891787       -0.0167909464
 C       -10.1134059031        8.9186273165       -2.2657296431
 C       -12.3084691059        8.1224012883       -3.0546932868
 C        -4.8228455669        7.2952058679       -4.1687862201
 C        -5.6678033237        5.3300240194       -5.4732762621
 C        -6.0767901129        4.0639615780        1.8395033839
 C        -6.4744627740        1.7845600737        0.7908576352
 C       -12.0760519080        3.2310164399        5.0738439436
 C       -10.1414777719        3.7530945547        6.6491828119
 H        -8.1328958602        1.8481050587        6.2195148743
 H        -8.4073004376        0.4003862042        5.6596967889
 H        -9.3623886642        0.8139756822        7.0733498751
 H       -10.4354568824        5.5242359858        3.1095306968
 H       -11.0897278083        3.9121843041        2.6778454458
 H        -8.5307532858        5.2834872313        2.0496320461
 H        -9.7435585188        4.8448136150        0.8390669373
 H        -5.7342855225        5.5485941997       -0.1234217725
 H        -7.3756147814        5.9864412376        0.2167066234
 H        -6.6260805004        7.2502669838       -1.7643604923
 H        -7.9470447946        6.2647439665       -2.1913128657
 H        -8.5870243792        5.7103996712       -5.5317200988
 H        -8.1914185537        7.1340448150       -6.3323225847
 H       -10.5305137433        7.2704646998       -5.6135531239
 H        -9.5819207649        8.5064260839       -4.7482522525
 H       -11.0869927077        4.4535263906       -1.7226142828
 H       -12.5427974997        5.4018732661       -2.3090567983
 H       -13.2641821943        5.5367078373        0.4407026966
 H       -11.9363816525        4.4360932877        0.4568882130
 H       -14.3394564294        1.1667628702       -1.3143951191
 H       -15.4524520410        0.2859848409       -0.3865255814
 H       -14.0022779101       -1.4620618864       -0.8131482667
 H       -13.6407553990       -0.9718879002        0.8342209561
 H       -10.7384913465       -3.9907457636        1.4483296535
 H        -9.1606227320       -3.2622241541        1.9868284100
 H        -9.5629461959       -3.7254715544        0.3031974878
 H       -12.1711099347       -2.2399641230       -2.1905236608
 H       -12.3335981050       -3.3654538821       -0.7725717153
 H       -10.7766859436       -3.1812306651       -1.5895751071
 H       -10.1361891130       -0.7666816616       -2.2674444893
 H        -8.9148953040       -1.5838304500       -1.3566176046
 H        -9.5180000666       -0.0284461278       -0.6293299922
 H       -13.7663584960        3.8655287909        2.6869205309
 H       -15.3828253568        3.3874736950        2.7170861206
 H       -14.9784294943        4.9192307075        1.8683231002
 H       -16.1228068714        2.7312780398       -0.8880021961
 H       -16.0986859791        4.4865504052       -0.2864051563
 H       -16.8843445422        3.2484240239        0.6630768149
 H       -10.3564863298        9.4531635362       -1.3481671491
 H       -10.2976073424        9.5792806609       -3.0971471993
 H        -9.0853284289        8.5199101991       -2.3536206530
 H       -13.0978394061        7.3516526118       -3.2559273586
 H       -12.1711516450        8.7514056250       -3.9501341931
 H       -12.7767635972        8.7854135301       -2.2723276354
 H        -3.9598856123        6.7749556458       -3.8935583878
 H        -5.0024667666        8.1046659329       -3.4980888820
 H        -4.6905804135        7.9193695920       -5.0946816486
 H        -6.3600967305        4.5554739348       -5.5869687282
 H        -4.6133746969        4.9092516434       -5.2641513819
 H        -5.5951072708        5.9866343485       -6.2965854912
 H        -5.9104938591        3.5472368353        2.7911529869
 H        -6.4764493704        5.0802120365        2.1103295662
 H        -5.1487019479        4.1459083918        1.3585613133
 H        -5.3755980511        1.7581774196        0.6686833717
 H        -7.0034154235        1.2791894121        0.0400290342
 H        -6.5620563939        1.3673139134        1.8093138613
 H       -12.3390438405        2.9260821168        4.0051540434
 H       -12.3448631222        4.2435542895        5.2098099471
 H       -12.6677545831        2.6623027384        5.8210127610
 H        -9.0632862259        4.0209156683        6.6726453142
 H       -10.3050031281        3.0280898970        7.5071198801
 H       -10.8626959802        4.6227172020        6.9310024600
 Na      -11.1667585591        1.0821081495        2.2141296246
