117

 C        -8.7606829784        1.7540591036        6.3788754023
 C        -9.9195531695        2.0089778033        5.3806512570
 O       -10.2726088580        1.1335769203        4.6383635940
 C       -10.5590508063        3.4730704726        5.3647257435
 C        -9.6865187933        4.2410798256        4.2485671340
 O        -8.7376811611        4.8771959699        4.5899232191
 C       -10.2804478015        4.4038362292        2.8379872156
 C        -9.1295351739        4.3280554847        1.8044633344
 C        -8.3704076778        3.0270708970        1.7262016523
 O        -8.8686682114        1.9870340371        2.0162559851
 C        -6.9252325013        3.0720869985        1.1693026403
 C        -7.1466098897        3.7087973099       -0.2827715389
 O        -7.8206242951        3.1917307945       -1.1296392680
 C        -6.4803171620        5.1040971108       -0.5354418873
 C        -6.8916839309        5.8331284176       -1.7911075546
 C        -5.9065569554        5.5627834856       -3.0253401853
 O        -5.0716353388        4.7476311206       -2.8097794479
 C        -6.0141680090        6.1780498125       -4.5442444011
 C        -7.4068482366        7.0647290375       -4.6443896435
 O        -7.5640471571        7.9395561329       -3.7851309918
 C        -8.4796770436        6.6940148899       -5.6478175855
 C        -9.8843223939        7.3440240476       -5.3296948242
 C       -10.5295426987        6.6155741492       -4.0519308533
 O       -10.5720485419        5.4151615592       -4.0989360574
 C       -11.2437009068        7.5234962838       -2.9803709959
 C       -11.6166465694        6.5582973414       -1.7122312482
 O       -10.9782979930        6.6308287541       -0.6801856752
 C       -12.7040411286        5.4839127430       -1.8302694656
 C       -13.1841640884        5.0417774507       -0.4885092979
 C       -13.8733416488        3.7558106713       -0.5929213433
 O       -14.0293817245        3.1893112731       -1.6552767758
 C       -14.5453876130        3.1466748935        0.7793670024
 C       -13.9344652710        1.7427663281        1.0022754993
 O       -13.1062862415        1.7205384400        1.8909768953
 C       -14.1760149342        0.5487591934        0.0904692553
 C       -13.2052653307       -0.6629870218        0.3484198837
 C       -11.7938777747       -0.3287998230       -0.2134255667
 O       -11.5277066920        0.8158885743       -0.4923724822
 C       -10.7330025436       -1.4997993597       -0.3997756987
 C       -10.2509999000       -1.8932941116        1.0185410332
 O       -10.5610087090       -1.2349256022        2.0149634226
 C        -9.3153832923       -3.1470454330        1.2201292681
 C       -11.4920060426       -2.6955335423       -0.9511585263
 C        -9.5915747623       -1.0317667323       -1.2864392936
 C       -14.2823838298        3.9506812403        2.0334073761
 C       -16.0809948133        3.1155493603        0.5829442831
 C       -10.2293444107        8.6878885361       -2.4666774886
 C       -12.4103926715        8.3318011391       -3.5827475532
 C        -4.8054748240        7.0607688926       -4.7925384898
 C        -6.0782124385        4.9714094798       -5.5211548362
 C        -6.0059402112        4.0017067233        1.9989476908
 C        -6.3269523558        1.6793930663        1.0269459281
 C       -12.0352168707        3.1830232726        4.9919629235
 C       -10.4623903370        4.0701976637        6.7274005523
 H        -7.8140244935        2.2365480139        6.0891578776
 H        -8.4983469781        0.7322475731        6.5294739235
 H        -8.9789153994        2.1885258184        7.3581025222
 H       -10.7991215575        5.3821582666        2.6771707682
 H       -11.0514498269        3.6505371380        2.6800032986
 H        -8.5232261545        5.2696363485        1.8379476110
 H        -9.5386601390        4.4435125858        0.7697738821
 H        -5.4333735416        4.8019429780       -0.5764371365
 H        -6.5997518202        5.7517434643        0.3539183653
 H        -7.1070152560        6.9448123604       -1.5887378733
 H        -7.8196799737        5.4293206903       -2.1704852489
 H        -8.7038085111        5.6074730355       -5.5333537778
 H        -8.1233378365        6.8048228947       -6.6952242212
 H       -10.5921136914        7.2428589062       -6.1765601997
 H        -9.8096654966        8.4766475060       -5.1316141753
 H       -12.2689527657        4.6013578312       -2.2411854696
 H       -13.4418980100        5.8408953223       -2.5064148151
 H       -13.9647211734        5.6971088135       -0.0607506427
 H       -12.4075402981        4.9537405392        0.2345113565
 H       -13.9275727041        1.0050365361       -0.9344279881
 H       -15.2498551229        0.2820616587        0.1728329822
 H       -13.6101385748       -1.4468706340       -0.2666034606
 H       -13.1627832879       -0.8720290461        1.3710282380
 H        -9.6605396483       -3.9236364998        0.5445300506
 H        -9.3796261466       -3.6489067320        2.2210033811
 H        -8.3325317420       -2.9453099894        0.9101095289
 H       -11.6956981048       -2.4365382289       -2.0135837154
 H       -12.3089777842       -3.1052955005       -0.3143459494
 H       -10.7435164645       -3.4372988857       -1.1512535599
 H        -9.8010146925       -1.1380354859       -2.3436675437
 H        -8.8151019395       -1.6045671823       -0.8931122224
 H        -9.5017563564        0.0243290190       -1.1226606726
 H       -13.2197427143        4.1843260012        2.1641433845
 H       -14.8014233998        3.5664139205        2.8456696333
 H       -14.8134349906        4.9226870562        1.8289353752
 H       -16.2526413010        2.2648878815       -0.0852768038
 H       -16.4118424235        4.0698815081        0.0843139784
 H       -16.6039516099        2.9625673372        1.5036020161
 H       -10.7736276572        9.3442799885       -1.7613607877
 H        -9.8126106273        9.2109438278       -3.3301887546
 H        -9.3413858809        8.2264624397       -1.9971249448
 H       -13.2867694881        7.8464722428       -4.0100017941
 H       -12.0556535013        8.9197023512       -4.4112533496
 H       -12.7922946078        9.1014751147       -2.8766079303
 H        -3.7979261456        6.7177856392       -4.6557604942
 H        -4.8822605402        7.9709205800       -4.1883016062
 H        -4.8042475533        7.3107192177       -5.9191621319
 H        -6.8678588280        4.3114843710       -5.2520767131
 H        -5.0231100995        4.4879437787       -5.4209528300
 H        -6.2499915191        5.3366459066       -6.5173672429
 H        -5.7856378804        3.5855657516        3.0025480418
 H        -6.4752584237        5.0012097344        2.1720758271
 H        -5.0813985420        4.2279816365        1.5435360969
 H        -5.5223155227        1.7946672120        0.3372155368
 H        -6.9573323957        0.9674891045        0.6741834632
 H        -6.0254947518        1.3217425142        1.9849249454
 H       -12.1732677990        2.6300463848        4.0211088288
 H       -12.6163919013        4.0768863434        4.9075431200
 H       -12.4634105321        2.5432536302        5.7527440522
 H        -9.5062102313        4.4572058456        6.9916166990
 H       -10.8165064390        3.3350150425        7.4311273755
 H       -11.1174233984        4.9656297538        6.6793791610
 Na      -10.9748711772        1.0743605188        2.3521167692
