117

 C        -8.6692569272        1.8723565895        6.4910238920
 C        -9.8251833438        2.0878755102        5.5266437286
 O       -10.1492329096        1.1797349951        4.7627498449
 C       -10.6196273969        3.4807509065        5.4664947208
 C        -9.8911166926        4.2589774968        4.3772817005
 O        -8.9498301123        4.9837741795        4.6792983230
 C       -10.3444253984        4.0951993311        2.9410120352
 C        -9.2428391629        4.3042338981        1.8975184323
 C        -8.3625727689        3.0962353731        1.7589490847
 O        -8.7175673510        1.9874590460        2.2219987276
 C        -6.9575871876        3.1971668726        1.1091496355
 C        -7.1050767312        3.8433220232       -0.3749463201
 O        -7.6737053215        3.1538539670       -1.2051329717
 C        -6.3782661759        5.1355893686       -0.7275222156
 C        -6.7649596364        5.8167184753       -2.0460880272
 C        -5.7715723771        5.4916139420       -3.1503566557
 O        -4.7627739080        4.7889901049       -3.0193169043
 C        -6.1852322875        5.9944459836       -4.5582723359
 C        -7.4297948441        6.8658785167       -4.5728935880
 O        -7.6277824001        7.8061613052       -3.8426322071
 C        -8.4661810263        6.5746480414       -5.6593114927
 C        -9.7078064268        7.3724091849       -5.3384080842
 C       -10.5104095290        6.6655590970       -4.1941554824
 O       -10.6326148178        5.4619773367       -4.1029221474
 C       -11.2605603502        7.5846344051       -3.0198050211
 C       -11.6583490322        6.6251601307       -1.8716832034
 O       -11.0381188810        6.5770660987       -0.8354757518
 C       -12.9703297502        5.7555257566       -2.0609513193
 C       -13.3120644950        5.0810244361       -0.6648332948
 C       -14.0728552766        3.7128193651       -0.6168382207
 O       -14.3085044664        3.0290615368       -1.5884210819
 C       -14.5811683702        3.1525170016        0.7541426130
 C       -13.8212441197        1.8973008021        1.1036575329
 O       -13.0074765029        1.8454720357        2.0245513315
 C       -14.1705575797        0.6152091800        0.3334456588
 C       -13.1628657327       -0.5589485617        0.4390846954
 C       -11.8150312870       -0.3114938581       -0.2673960170
 O       -11.3570993880        0.7594337766       -0.5721290361
 C       -10.7759142557       -1.5344996626       -0.3359087322
 C       -10.1931731252       -1.8945675607        1.0935831770
 O       -10.4379288100       -1.2516363366        2.0788782979
 C        -9.2277540383       -3.0651086189        1.1765691556
 C       -11.4141171997       -2.7241501426       -1.0656636891
 C        -9.4952593989       -1.1254144018       -1.1499266156
 C       -14.3902368435        4.2438136572        1.8565461725
 C       -16.0780660031        2.8298011262        0.6018117815
 C       -10.2138698634        8.5285994700       -2.3909374001
 C       -12.5627070614        8.1661644381       -3.6498606938
 C        -5.1200809406        7.1159018892       -4.9089903173
 C        -6.0021751340        4.7776716559       -5.5780895415
 C        -6.0895480987        3.9815748447        2.0932511859
 C        -6.3541879415        1.7693063889        0.8849935899
 C       -12.0955046316        3.3221123466        5.0605229848
 C       -10.5108903685        4.3200535241        6.7843349127
 H        -8.0165526255        2.7641348274        6.5511639306
 H        -8.0643490432        1.0386427825        6.2320590686
 H        -8.9598448835        1.7340869390        7.5835530030
 H       -11.0525506486        4.9351423875        2.8210203678
 H       -10.9915382362        3.2109667405        2.7744894765
 H        -8.6292014587        5.1205947048        2.2283333525
 H        -9.5978588043        4.7327790480        0.9767548236
 H        -5.3126072939        4.9012344812       -0.6662551513
 H        -6.6308104309        5.8121396611        0.0660049352
 H        -6.7380058460        6.8412293441       -1.8594804627
 H        -7.7540344089        5.6179000346       -2.4873807625
 H        -8.7560688722        5.5267870407       -5.6753440317
 H        -8.1529600332        6.8380196083       -6.6718901126
 H       -10.4142021741        7.4931787949       -6.1440896978
 H        -9.4238809294        8.3378605263       -5.1070603436
 H       -12.6854048486        5.0454835948       -2.8903874072
 H       -13.7866222015        6.4187873099       -2.4446948090
 H       -13.7484245686        5.9403741496       -0.1397441443
 H       -12.3592184132        4.7450240577       -0.1185148062
 H       -14.2648430123        0.8882791833       -0.6866556170
 H       -15.1118589735        0.2198185573        0.7418612047
 H       -13.7505921977       -1.3904845882        0.0217990078
 H       -12.8342026406       -0.6962424725        1.5205988174
 H        -9.3384219295       -3.9226596651        0.5205328964
 H        -9.2867255926       -3.4364669495        2.1794174490
 H        -8.1876697062       -2.6049939475        1.0224135565
 H       -11.9130870808       -2.4698077597       -1.9729722583
 H       -12.0660976468       -3.2299543895       -0.3729651366
 H       -10.5796423362       -3.3934470500       -1.3352672370
 H        -9.9156955042       -0.7117607753       -2.0390831402
 H        -8.9813824464       -2.0753544325       -1.3117058061
 H        -8.9620750882       -0.2735028367       -0.7227100523
 H       -13.3574912626        4.4943048044        1.8811267435
 H       -14.7026684177        3.6950105736        2.7948061345
 H       -15.0462075398        5.0726672527        1.8151708021
 H       -16.2981081004        1.9632329923        0.0053149718
 H       -16.5535913556        3.6389873897        0.1304616238
 H       -16.4159979086        2.6470842854        1.6603971696
 H       -10.3703719272        8.6900676267       -1.3207224566
 H       -10.2352535136        9.4664412901       -2.9729609024
 H        -9.2565943973        8.1117538336       -2.5263499244
 H       -13.1734103045        7.4158817188       -4.1187792878
 H       -12.4313770616        8.8982326675       -4.4545194759
 H       -13.2668369401        8.5681425120       -2.9552362077
 H        -4.1752847601        6.6311414570       -5.2391028994
 H        -4.8383347166        7.7089509927       -4.0193818843
 H        -5.3272495213        7.6829441058       -5.7237917722
 H        -6.9047052831        4.1082762399       -5.5731890491
 H        -5.1511346417        4.2502703924       -5.3221331925
 H        -5.9117921788        5.2686264196       -6.5633473725
 H        -6.0997445165        3.4710711765        3.0410764443
 H        -6.3950190906        4.9795068056        2.2921249846
 H        -4.9923313165        4.0156542858        1.8186925670
 H        -5.2502858899        1.7126200354        0.7491192394
 H        -6.8593994147        1.2283892150       -0.0103267785
 H        -6.7246046867        1.1613054080        1.7392225378
 H       -12.3678098414        2.4947409974        4.4781374138
 H       -12.4536340692        4.2105318013        4.4894251836
 H       -12.6798882642        3.2472860337        5.9704770239
 H        -9.5051617888        4.2568338902        7.1332479238
 H       -11.1618744811        3.7950846836        7.4900470635
 H       -10.8099047500        5.3023820367        6.6858002621
 Na      -10.8084767813        0.9387293741        2.5298112303
