117

 C        -8.7995140899        1.3320505454        6.0054571916
 C       -10.0013698637        1.7809554720        5.1847742407
 O       -10.4588713263        1.0062937776        4.3371528453
 C       -10.5634907696        3.2036731534        5.2401588339
 C        -9.6225838125        3.9159376418        4.1763097749
 O        -8.4036524500        3.9414704824        4.3380640536
 C       -10.2036766906        4.3844992197        2.8802274841
 C        -9.1312560171        4.5149306691        1.7753482825
 C        -8.4023245222        3.1912966597        1.5387923016
 O        -9.0222733292        2.1174665417        1.6267436043
 C        -6.9347283594        3.1837137962        1.0449573470
 C        -7.1520373246        3.9073307552       -0.3811861253
 O        -7.6108399957        3.2613969377       -1.2859470275
 C        -6.7569971910        5.3769856196       -0.4964975915
 C        -7.1289592243        6.0005420173       -1.8392686758
 C        -6.1612495951        5.5230450552       -2.9432174038
 O        -5.4140487152        4.6021965173       -2.6951566053
 C        -6.0313052534        6.2576202184       -4.3526130918
 C        -7.2830240211        7.1722518900       -4.5708840827
 O        -7.5214097438        8.0972949894       -3.8457959698
 C        -8.3855358121        6.7268853591       -5.5129583938
 C        -9.7063229361        7.4288038096       -5.0683318506
 C       -10.2790464546        6.7761336536       -3.8016452173
 O       -10.2151175015        5.5546440213       -3.6623569060
 C       -10.9909684430        7.5878186099       -2.6411183663
 C       -11.2160962885        6.6893754153       -1.4119387737
 O       -10.7322691651        7.0426002446       -0.3458010942
 C       -12.0506957411        5.3675251025       -1.4975271352
 C       -12.8009411968        5.0465961402       -0.2321412185
 C       -13.7339228024        3.7318457547       -0.5210897915
 O       -13.7550501677        3.2422494560       -1.6311849369
 C       -14.5975126623        3.1100390776        0.6717525077
 C       -14.1076478243        1.6639630289        0.9144131453
 O       -13.5386556008        1.4554776592        1.9744421280
 C       -14.3606515362        0.6700724040       -0.2627694448
 C       -13.5194896927       -0.6302558471       -0.3935477126
 C       -11.9911278762       -0.3302876679       -0.2736164449
 O       -11.6544731636        0.8411824068       -0.0817618698
 C       -10.9950263342       -1.4770386103       -0.3905594083
 C       -10.4401689736       -1.9334142483        0.9667828293
 O       -10.4254023509       -1.2191461499        1.9341954971
 C        -9.7143437715       -3.2710480147        1.0910281091
 C       -11.6057746765       -2.7336905202       -1.1369721066
 C        -9.7517419242       -0.9345935800       -1.1698274445
 C       -14.4398100982        4.0398753107        1.9623446557
 C       -16.0106742642        3.0794134408        0.1104761906
 C       -10.1158418703        8.7538407637       -2.1468835929
 C       -12.4172842613        8.0448240812       -3.0859741341
 C        -4.8316101011        7.1859191834       -4.2750225604
 C        -5.7615219463        5.1828700963       -5.4056533262
 C        -6.0294417115        3.9344984430        2.0605514308
 C        -6.4562293008        1.7151647734        0.9345307654
 C       -12.0689652332        3.3740495960        4.8300096028
 C       -10.2817984046        3.8624370459        6.6643357507
 H        -8.0631584709        2.0761004026        6.0627570735
 H        -8.1073516169        0.5400753292        5.5745633176
 H        -9.1030982554        1.1027482628        7.0089431739
 H       -10.6862223367        5.3455327980        3.0783265191
 H       -10.9503523434        3.6884605618        2.4694781788
 H        -8.3343736793        5.2174654509        2.1417629440
 H        -9.5401425497        4.9123569380        0.8039085710
 H        -5.6903857357        5.4808305335       -0.2476984407
 H        -7.2662888746        5.8629575861        0.3503691694
 H        -7.1247528173        7.1055256432       -1.7678947251
 H        -8.1638981340        5.7952404056       -2.1862060780
 H        -8.5010021338        5.6341180523       -5.5128559090
 H        -8.1975947156        6.9334900793       -6.5988043067
 H       -10.5990464528        7.3160726647       -5.8177080915
 H        -9.4201749253        8.4755105448       -4.9376733334
 H       -11.2666904907        4.6889220658       -1.7143542000
 H       -12.8106706140        5.3088265272       -2.2466075670
 H       -13.4130374378        5.7674761298        0.2042709685
 H       -12.1220413232        4.8036822386        0.5746055251
 H       -14.2573775052        1.3038519746       -1.1714556166
 H       -15.4776231902        0.4399971337       -0.1656781496
 H       -13.7502210775       -1.0467240425       -1.3502168984
 H       -13.8511317671       -1.3418481619        0.3554934660
 H       -10.3773504962       -4.1106478549        1.1524601235
 H        -9.1200814853       -3.2476720263        1.9661475308
 H        -9.1170247279       -3.4970888738        0.1487881095
 H       -11.5606984417       -2.4412015751       -2.1946514491
 H       -12.6550584231       -2.7979734052       -0.8186307955
 H       -11.0843020403       -3.7093594855       -1.0224452100
 H       -10.1009195733       -0.3163959083       -1.9517765099
 H        -9.2877503971       -1.7985073203       -1.6081592018
 H        -9.1275735571       -0.4547425016       -0.4224329186
 H       -13.4347670781        4.0092374647        2.3046833347
 H       -15.0085348216        3.5390107201        2.8026431801
 H       -14.6781135106        5.0738024949        1.7689377614
 H       -15.9210205556        2.3827613511       -0.6817873529
 H       -16.3697534110        4.0406043604       -0.0997400408
 H       -16.7387960482        2.6769713129        0.8822822687
 H       -10.5692691099        8.8875635731       -1.1599319991
 H       -10.2774517332        9.6951804342       -2.7244518815
 H        -9.0829337501        8.5031444970       -2.2074603501
 H       -12.9234184106        7.1806650019       -3.4618219639
 H       -12.3856168005        8.7913780136       -3.8807642064
 H       -13.0259327712        8.5431315727       -2.3452966060
 H        -3.8234700115        6.7155863233       -4.4522005043
 H        -4.7122963277        7.6819311081       -3.2638938664
 H        -5.0041184199        8.0182306630       -4.8692179007
 H        -6.6422600961        4.4662979490       -5.3538553902
 H        -4.8830215465        4.7281975190       -5.1388349342
 H        -5.7386500025        5.6360278387       -6.4292654065
 H        -6.3277282304        3.5353141959        3.0309451930
 H        -6.2731878656        4.9739812621        2.1070016259
 H        -4.9052903671        3.8831486234        1.9413169638
 H        -5.4119815671        1.6327147313        0.9637190588
 H        -6.8504211638        1.2832367458       -0.0003550401
 H        -6.8726139227        1.2042802431        1.7506069618
 H       -12.3486763398        2.5512091006        4.2426558551
 H       -12.3793318614        4.3569017064        4.3687951194
 H       -12.6136667228        3.2906623220        5.7548026079
 H        -9.2597145614        3.6894690437        7.0212649735
 H       -10.9311531017        3.4079176326        7.4196713007
 H       -10.5057441844        4.8885739526        6.6652383506
 Na      -11.1348822224        1.2011721286        2.0746264444
