117

 C        -8.8163815612        1.5224354591        6.0361960186
 C        -9.9431746755        1.8206146224        5.1343489854
 O       -10.3658807743        1.1145075537        4.2475226742
 C       -10.5774057210        3.2771822871        5.2254603504
 C        -9.6060334318        4.0490851872        4.1842802285
 O        -8.4598304021        4.2927960509        4.4329381270
 C       -10.2578466970        4.4324173875        2.8292115787
 C        -9.0883325364        4.5216061999        1.8472180781
 C        -8.3789816612        3.1018112787        1.6055386080
 O        -9.0091250281        2.0899173878        1.6231702016
 C        -6.9007432910        3.1569147036        1.1465708117
 C        -7.1695305759        3.8063171889       -0.2083759308
 O        -7.8027322549        3.2458523777       -1.0589268204
 C        -6.7193681286        5.2980737941       -0.4046630501
 C        -7.0617508652        5.6917625309       -1.8479856264
 C        -6.0178741798        5.4139182212       -2.9173156990
 O        -5.1665552227        4.6094107985       -2.6652515631
 C        -6.1099073811        6.1683447073       -4.3466132634
 C        -7.3436377856        7.1939016214       -4.5178672942
 O        -7.3848883504        8.2124175530       -3.8002882669
 C        -8.5137427483        6.8260840388       -5.4973914960
 C        -9.9378989279        7.3771083962       -5.1589569093
 C       -10.4920618530        6.6394466448       -3.9157471099
 O       -10.4449146567        5.4271224169       -3.8760999703
 C       -10.9910787486        7.5033111204       -2.7452913139
 C       -11.2898930001        6.6615607640       -1.4887462543
 O       -10.8577838273        6.8655278194       -0.3667001113
 C       -12.1980534792        5.4967888300       -1.6937340041
 C       -12.9525435756        5.1053802727       -0.4175459060
 C       -13.6882452715        3.7614703727       -0.5535456072
 O       -13.7690176469        3.1987803706       -1.6097810384
 C       -14.5070364013        3.1006560714        0.7009550800
 C       -14.0024754248        1.7218604067        0.9491416719
 O       -13.3924333131        1.4339933788        1.9861301209
 C       -14.3718559941        0.6330853196       -0.1449479795
 C       -13.4826454407       -0.5931321275       -0.1937182089
 C       -11.9536794443       -0.2799677051       -0.1976803079
 O       -11.4583208214        0.8276640785       -0.0754224229
 C       -10.9430000476       -1.5032721049       -0.3546726252
 C       -10.3419212365       -1.8863148992        1.0140227755
 O       -10.5076417884       -1.1580893745        2.0046877434
 C        -9.6033460015       -3.1014227658        1.1580573765
 C       -11.5348499917       -2.6783328031       -1.1050352497
 C        -9.7040536167       -1.0275973819       -1.2471032559
 C       -14.4040625825        3.9781972147        1.9294935678
 C       -16.0610899842        3.0427929547        0.3904139568
 C       -10.1370804983        8.8272609804       -2.4636143711
 C       -12.3308382574        8.0484686378       -3.3348500323
 C        -4.8848683247        7.1236382152       -4.2931428869
 C        -6.0932250725        5.1276127904       -5.4814777787
 C        -6.0108117015        3.8936567073        2.1910664592
 C        -6.3716113212        1.7402926705        0.8338108274
 C       -12.0484748486        3.2957498892        4.8793770230
 C       -10.3755852732        4.0270847387        6.5552223257
 H        -7.8263095418        1.9206925520        5.7164115838
 H        -8.5578296036        0.4539799980        5.9703081991
 H        -9.0230885862        1.7806374936        7.0536842591
 H       -10.7571166350        5.4163640400        2.9336299618
 H       -10.9616679629        3.7245640429        2.3423863260
 H        -8.4131543524        5.3350460032        2.0433647140
 H        -9.5222477670        4.7170335651        0.8801751778
 H        -5.6462330618        5.2052455792       -0.2922247144
 H        -7.0693153904        5.9585494781        0.3726588294
 H        -7.4183235998        6.6971699311       -1.9544246218
 H        -7.9051672260        5.1038778778       -2.2047341015
 H        -8.6779071759        5.7282872334       -5.5160332394
 H        -8.3519760978        7.0372239354       -6.5415233652
 H       -10.5360560094        7.1260854099       -5.9524498615
 H        -9.9032480517        8.4603040761       -5.1047491173
 H       -11.4428289912        4.7244066737       -2.0443326359
 H       -12.9681332116        5.6510084325       -2.4961521510
 H       -13.7632854586        5.8091456947       -0.0201992501
 H       -12.3260147076        4.9744785085        0.4927028034
 H       -14.2898023070        1.1204465703       -1.1368123370
 H       -15.4052348605        0.4373007311        0.0359510406
 H       -13.7151444176       -1.1419391625       -1.1517086422
 H       -13.6711278555       -1.2164911766        0.7061044125
 H       -10.1568353071       -4.0261724954        0.8328453736
 H        -9.4014347606       -3.1921512301        2.2553954369
 H        -8.7287464265       -3.0673786671        0.5727626550
 H       -12.1966145465       -2.4245100859       -1.9089763167
 H       -11.9941909082       -3.1968464804       -0.3095934096
 H       -10.7919558724       -3.2948962286       -1.5989015120
 H       -10.2243733361       -0.7503862192       -2.1982437371
 H        -8.9295492153       -1.8138525491       -1.3163951256
 H        -9.3583462776       -0.1235496804       -0.7583026713
 H       -13.3206467165        4.1447989931        2.1950699804
 H       -14.9368521722        3.4953355656        2.7075403418
 H       -14.7760141905        4.9777661576        1.7231078863
 H       -16.2360714498        2.9507381727       -0.6979585627
 H       -16.5283905766        3.9013894005        0.9195396628
 H       -16.4874739224        2.2325342044        0.8667793491
 H       -10.7654741196        9.5371168856       -1.9972886405
 H        -9.7828441032        9.1889111142       -3.3782068283
 H        -9.1769020212        8.5340054627       -1.9696836696
 H       -12.9937688804        7.3146515257       -3.8053693724
 H       -12.2717233957        8.8795219486       -4.0046245863
 H       -12.8152676344        8.5542707350       -2.5162330392
 H        -4.0417062841        6.6113060986       -3.8984121376
 H        -4.9858542526        7.9071110412       -3.6133848218
 H        -4.6119113633        7.6003129064       -5.3138096471
 H        -7.0544986839        4.7007482694       -5.5126951965
 H        -5.2601870378        4.3908708303       -5.2296378094
 H        -5.9569737370        5.6073473206       -6.4271211717
 H        -5.9951013107        3.3916511158        3.1463204293
 H        -6.2122692814        4.9782259979        2.3201773500
 H        -5.0347176524        3.9226866981        1.7963981237
 H        -5.4483752154        1.8288538359        0.1651145574
 H        -7.1606934711        1.2149693106        0.2700077694
 H        -6.2349788455        1.1349337984        1.8075768960
 H       -12.2093015451        2.6480213028        3.9826871670
 H       -12.3287580771        4.2725076954        4.6511632313
 H       -12.7107425105        2.9015618772        5.6728460096
 H        -9.3283066187        4.0767500169        6.7877707347
 H       -10.8596108003        3.4963827154        7.3138448354
 H       -10.6911619242        5.0819473046        6.4626624412
 Na      -10.9774467091        1.0840974275        2.1645246764
