117

 C        -8.8184301430        1.5562375627        6.1400184052
 C        -9.9250753009        1.8733851708        5.2492859004
 O       -10.2688231541        1.0481631319        4.3829510370
 C       -10.5858585395        3.3834068145        5.2027578550
 C        -9.7071306361        4.1555990678        4.2001536750
 O        -8.5622822146        4.4835488940        4.5217138163
 C       -10.2329112082        4.5295857785        2.8070633957
 C        -9.1301910252        4.4511523931        1.7520542897
 C        -8.3496796023        3.0957490836        1.6347343503
 O        -8.9367340703        1.9942666257        1.6865539004
 C        -6.8802412130        3.1559383005        1.1608734884
 C        -7.1147110687        3.8127838749       -0.2663954522
 O        -7.8653505813        3.2849397072       -1.0324487717
 C        -6.6178052275        5.2546720922       -0.5089437002
 C        -7.1071827955        5.7216195994       -1.9253881458
 C        -6.0383400993        5.3987400452       -2.9646743793
 O        -5.0606225115        4.7069529119       -2.7817880380
 C        -6.1291902130        6.1821029343       -4.3640085931
 C        -7.3982437745        7.1335617880       -4.4235226504
 O        -7.3959645983        8.1791481166       -3.7984814743
 C        -8.5076218143        6.8032942779       -5.4768245484
 C        -9.9095098301        7.3432125801       -5.1717168451
 C       -10.4400381584        6.6445750471       -3.9338191491
 O       -10.5991943133        5.4216356591       -3.8688232989
 C       -11.0426258500        7.5677388280       -2.8368081987
 C       -11.3813281131        6.6945922588       -1.6097498936
 O       -10.7752514725        6.9510989645       -0.5859379576
 C       -12.3677701527        5.4033586162       -1.8143968426
 C       -13.0569643387        5.1014170866       -0.4685701262
 C       -13.8550560492        3.6896496572       -0.5407160233
 O       -13.8785675264        3.0699660266       -1.5882274861
 C       -14.5681123251        3.1936313248        0.7627581543
 C       -14.0133437561        1.7142563129        0.9697937379
 O       -13.2119770764        1.4265387694        1.8577111917
 C       -14.2491556652        0.6035794845       -0.1190874165
 C       -13.3371036818       -0.5858008469       -0.0030989245
 C       -11.9005000985       -0.2710557689       -0.2302907220
 O       -11.4519697496        0.8738816498       -0.1732293322
 C       -10.9058690292       -1.4684080565       -0.3943125225
 C       -10.3398292921       -1.8551400597        1.1057903509
 O       -10.5487657985       -1.1160173679        2.0346318602
 C        -9.5189848704       -3.1450691796        1.2063886347
 C       -11.5158766728       -2.7836693630       -1.0938906802
 C        -9.7384273675       -0.9677011370       -1.2871490635
 C       -14.2799656169        4.0417584786        2.1073138546
 C       -16.0444822226        3.0769014292        0.3418250993
 C       -10.0529940466        8.6892190449       -2.4295167390
 C       -12.4305421862        8.0791043810       -3.4275172756
 C        -4.8888261313        7.0644662752       -4.3775793753
 C        -6.1436124405        5.0704456518       -5.4630493270
 C        -5.9767610777        3.8519945603        2.1590239629
 C        -6.3237007127        1.6907529649        0.9910905119
 C       -12.0993486098        3.2784906036        4.9012687143
 C       -10.4001728707        4.0814186045        6.6401621974
 H        -7.8894706032        1.8391336096        5.6504464737
 H        -8.5948302288        0.3998781506        6.0950118392
 H        -8.8250327323        1.9031604691        7.1175797244
 H       -10.4872911830        5.5854623945        2.8267310141
 H       -11.1625838942        3.9779380133        2.4546249976
 H        -8.4406127595        5.2681572485        1.9491353062
 H        -9.5286411077        4.7076696256        0.7640750239
 H        -5.5074595277        5.2555947329       -0.3642736377
 H        -7.0503285982        5.8062864777        0.3289011049
 H        -7.1732049130        6.7566383850       -2.0124527581
 H        -8.1341873426        5.3531319557       -2.2082893750
 H        -8.7034981475        5.7791755720       -5.7636859838
 H        -8.2146394439        7.2596135128       -6.4159018720
 H       -10.5211442447        7.0054974456       -6.0307710273
 H        -9.9942939757        8.4025833232       -5.1217902209
 H       -11.8493428854        4.4904502115       -2.2300148755
 H       -13.1607018877        5.7726532862       -2.5284880414
 H       -13.7748650027        5.8252673515       -0.0977801647
 H       -12.2975940827        5.0353334750        0.3682476717
 H       -14.1431490792        1.0380743372       -1.0589974154
 H       -15.2746938554        0.3165403810        0.0571583424
 H       -13.6537096156       -1.3345601195       -0.7530381794
 H       -13.4295497973       -0.9430025460        1.0766798305
 H        -9.9542785777       -3.9995465431        0.6620653683
 H        -9.3899158140       -3.4315652740        2.2015890932
 H        -8.5631347345       -2.9372332844        0.6727864735
 H       -12.2372857716       -2.6668350285       -1.8639704964
 H       -11.8191657993       -3.3404965423       -0.2481218251
 H       -10.7239663266       -3.3460690970       -1.6478880378
 H       -10.1213551113       -1.0937230191       -2.3078712695
 H        -8.8754570346       -1.6264108793       -1.0004154669
 H        -9.5555301930        0.1101206138       -1.1008848624
 H       -13.1927396246        4.0727879544        2.2123864594
 H       -14.8296598939        3.5425313784        2.9648561239
 H       -14.5616127275        5.0573244813        2.0517382650
 H       -16.1643579490        2.9205846480       -0.7434931761
 H       -16.4800969474        3.9833877225        0.7400422695
 H       -16.5268919902        2.2632682466        0.8992815397
 H       -10.6834624706        9.4649278878       -2.0753427947
 H        -9.4421242712        8.9857377218       -3.2613594668
 H        -9.2978660792        8.3175227798       -1.7244122582
 H       -12.9894662515        7.1915604261       -3.7726801937
 H       -12.4477479403        8.7412584611       -4.3317779877
 H       -13.0276419653        8.6904515341       -2.7677615495
 H        -4.1383229170        6.5929870003       -3.7125133047
 H        -4.9858425415        8.0092312270       -3.9063045611
 H        -4.4235698383        7.1860702791       -5.3345495413
 H        -7.0627128271        4.4715144665       -5.3628699896
 H        -5.2701202019        4.5741527585       -5.3408432073
 H        -6.2224925635        5.5575159429       -6.4400455242
 H        -5.7954356594        3.2447002030        3.0139372023
 H        -6.2134531132        4.8468415857        2.4510220911
 H        -5.0103971703        4.0042995577        1.6191769208
 H        -5.6322921403        1.7331952368        0.1557991762
 H        -7.1817050365        1.0012502238        0.6968730690
 H        -5.9279580723        1.2790056794        1.9217432858
 H       -12.3905702484        2.9535347186        3.9259220152
 H       -12.5147050550        4.3016522112        5.0552844197
 H       -12.5947960572        2.5999378542        5.6350976884
 H        -9.3106018213        4.4552476453        6.6689555617
 H       -10.5837991121        3.3652129651        7.4871751653
 H       -10.9576090596        5.0349853340        6.6585520491
 Na      -11.0204260313        1.0157980245        2.1999060311
