117

 C        -8.7117370000        2.0346104016        6.5457382647
 C        -9.9089066704        2.1411109057        5.6342803396
 O       -10.1111001037        1.2669363074        4.8322369779
 C       -10.6869712136        3.4251307375        5.6050333424
 C        -9.8906721666        4.2461625719        4.3553498327
 O        -9.0257493220        5.0023939534        4.6491793192
 C       -10.3931154310        4.1670242608        2.8892698219
 C        -9.2325306532        4.2848697427        1.8980324032
 C        -8.3562353810        3.0620608167        1.7720577726
 O        -8.7002161620        1.9891202143        2.1750023140
 C        -6.9595277281        3.1592222374        1.0742586940
 C        -7.0378847902        3.8542183227       -0.3655948803
 O        -7.6165908870        3.2768407813       -1.2432573397
 C        -6.2637097722        5.1847170028       -0.5943219944
 C        -6.7252932496        5.7153387134       -2.0408486964
 C        -5.7351012642        5.3402546564       -3.2437022412
 O        -4.6442137696        4.8887135836       -3.0659459871
 C        -6.1180959379        5.9435957606       -4.6903030196
 C        -7.4369679506        6.7359965481       -4.6198862165
 O        -7.5039567864        7.6603999932       -3.8229872048
 C        -8.5496074714        6.5333775397       -5.6677235519
 C        -9.8616781419        7.3288178630       -5.3142668851
 C       -10.5675827461        6.6678653863       -4.1476025832
 O       -10.6530555368        5.4746913500       -4.1521355245
 C       -11.3329580689        7.5266095795       -3.0666313878
 C       -11.7822425715        6.5312569471       -1.8865767509
 O       -11.0580767848        6.4961815871       -0.9149573017
 C       -13.0738675407        5.7067336293       -1.9655951168
 C       -13.3622079049        4.9617982055       -0.7277279550
 C       -14.0899355223        3.6726494272       -0.7704468593
 O       -14.4518188881        2.9566041245       -1.6668328213
 C       -14.5755408810        3.1975724652        0.8417827545
 C       -13.7074760612        1.9520202670        1.1504990655
 O       -12.8863298540        2.0349836776        2.0451315963
 C       -14.1212402882        0.6514502051        0.3440506918
 C       -13.0636354846       -0.5391428143        0.4917661653
 C       -11.6295513103       -0.2967979528       -0.1075798096
 O       -11.3840702339        0.8146620824       -0.5440275317
 C       -10.7398101630       -1.5788047356       -0.3377546831
 C       -10.1252766871       -1.9463431548        1.1089763236
 O       -10.4426198596       -1.2294874420        2.0634572016
 C        -9.1936641501       -3.1113342938        1.1601674134
 C       -11.4334130292       -2.7845796543       -0.9889991277
 C        -9.4628241376       -1.0414503040       -1.1651702051
 C       -14.4405832288        4.3163686285        1.8851860408
 C       -16.0881519183        2.7922634482        0.6440483132
 C       -10.2816232887        8.6074735696       -2.5265757017
 C       -12.5050974605        8.2145091857       -3.7515273438
 C        -5.0805000917        7.0911099255       -4.9607457068
 C        -6.1082120669        4.8166611391       -5.6850655517
 C        -6.0611724426        4.0143347572        2.0452171376
 C        -6.3811127678        1.7903451729        0.8261051038
 C       -12.1863737664        3.3336707636        5.2418659845
 C       -10.4891780971        4.3086334916        6.8623339910
 H        -8.1603191903        2.9421663384        6.8268169485
 H        -8.1033677945        1.3032150053        6.1245254568
 H        -8.9552261313        1.5901915546        7.5727651032
 H       -11.2651386340        4.8138892499        2.7122492805
 H       -10.7593378182        3.1696991213        2.7343102156
 H        -8.5864211531        5.1577817628        2.0347592486
 H        -9.6072882624        4.5593593313        0.9126024661
 H        -5.1960769832        4.9438933389       -0.4713824541
 H        -6.6030136454        5.8878095595        0.1947011605
 H        -6.8719926092        6.8185222857       -2.0052482486
 H        -7.6615866741        5.3057406378       -2.3391791935
 H        -8.7431553624        5.5043797704       -5.8044986242
 H        -8.1884847524        6.9477556510       -6.6118091745
 H       -10.6593261504        7.4160279905       -6.0721319485
 H        -9.5683829324        8.3591099684       -5.1687441687
 H       -12.7659265802        5.0449664676       -2.8088829541
 H       -13.8781472862        6.3821413713       -2.3592606290
 H       -14.0076435526        5.6917106000       -0.2506574686
 H       -12.4640782000        4.7922920466       -0.0469466986
 H       -14.2132105892        0.9710778435       -0.6524773694
 H       -15.0396008857        0.2583041841        0.7312863773
 H       -13.6112295213       -1.3416542160       -0.0396958121
 H       -12.9490160177       -0.7446152449        1.5963420892
 H        -9.3383571160       -3.8969130721        0.4772381232
 H        -9.2582885659       -3.5343366446        2.1919259560
 H        -8.1951095550       -2.6448024693        1.0519332633
 H       -12.0037623690       -2.3839725347       -1.8363108060
 H       -12.1836680137       -3.2355284399       -0.3055236702
 H       -10.7338882366       -3.5119853833       -1.3184447359
 H        -9.7691089935       -0.2625051424       -1.8852784104
 H        -8.9640796447       -1.9125637084       -1.5580134902
 H        -8.9014772121       -0.4160833635       -0.4120981304
 H       -13.4430660816        4.6664707162        2.0232670221
 H       -14.8479580448        3.9245035844        2.8084216854
 H       -15.1846259128        5.1142766190        1.6088786331
 H       -16.0979549218        2.2837670551       -0.3146097759
 H       -16.7679859550        3.5968413007        0.4294694697
 H       -16.4088453327        2.0724359253        1.4348959614
 H       -10.5455354498        8.7490460397       -1.4631553377
 H       -10.2920740529        9.5739034350       -3.0512496620
 H        -9.3268142732        8.1875611100       -2.4836099851
 H       -13.0976307621        7.6947890300       -4.4852683484
 H       -12.1522557839        9.0901569999       -4.2774348667
 H       -13.3311720946        8.5046845173       -3.0837651130
 H        -4.0748227411        6.8383908206       -5.0973212536
 H        -5.1093967682        7.7596736156       -4.0866131584
 H        -5.2599582674        7.6284873331       -5.8762460647
 H        -6.9545079366        4.2357485127       -5.4221811894
 H        -5.1931693709        4.1562797486       -5.5307638323
 H        -6.1917054516        5.1788365113       -6.6750713180
 H        -6.0630397780        3.6378085859        3.0744509031
 H        -6.5218266038        4.9787820490        2.1373428053
 H        -5.0127394020        4.1444899227        1.8128622463
 H        -5.2424962295        1.9082195998        0.8179304359
 H        -6.6723762608        1.3208054574       -0.1114263068
 H        -6.7166929510        1.0789111116        1.6411893485
 H       -12.2599066492        2.4089806270        4.6406808087
 H       -12.6598107796        4.0912739736        4.5812333493
 H       -12.7998889368        3.1600553211        6.0968227540
 H        -9.4224522345        4.3806754810        7.0933281129
 H       -11.0581902381        3.8342270707        7.7121577260
 H       -10.9745839905        5.3061597843        6.6597128741
 Na      -10.7643447719        0.8761967091        2.6009872609
