117

 C        -9.2917467414        2.2230070178        6.8083016994
 C       -10.2429660939        2.4759767697        5.7376569754
 O       -10.7025992469        1.6023431067        5.0213916623
 C       -10.6862654888        3.9888011651        5.5087340113
 C        -9.6555918062        4.4785577927        4.3373255338
 O        -8.4619226297        4.4897773549        4.5742508190
 C       -10.2105036248        4.7652376801        2.8717544678
 C        -9.0427018793        4.8460912923        1.8211412871
 C        -8.1773634448        3.5859488370        1.7682516421
 O        -8.5627736500        2.5078301538        2.1647549146
 C        -6.7555261698        3.7292129078        1.1405068367
 C        -7.0236533056        4.0858868828       -0.4228236302
 O        -8.1512586712        3.9101752095       -0.8078612306
 C        -5.9413378185        4.5138849556       -1.4430012845
 C        -6.6315155743        4.9223652135       -2.7998652302
 C        -5.5419598591        5.4431821603       -3.8023221747
 O        -4.3648493788        5.4912831168       -3.5421032814
 C        -6.2426786234        5.6664887718       -5.3064241395
 C        -7.6879009654        6.2662050456       -5.0473371491
 O        -7.8810565802        7.1004656565       -4.1631980566
 C        -8.8555813018        5.6583029305       -5.7608484267
 C       -10.2516536594        6.2990300419       -5.5706756616
 C       -10.7852886341        5.8972877332       -4.2019740381
 O       -10.6821336454        4.7525896547       -3.7679730208
 C       -11.6731623716        6.9221670677       -3.4097855652
 C       -12.0694162593        6.3610848253       -1.9243171221
 O       -11.7671402042        6.9464117032       -0.8958688698
 C       -12.7628872594        4.9926468314       -1.9617660848
 C       -13.0723017842        4.5634987701       -0.5061031474
 C       -14.0402889284        3.3654227838       -0.4282458757
 O       -14.6248235602        2.9962002598       -1.4221009711
 C       -14.5325124707        2.8268111171        0.9515986631
 C       -13.5723930260        1.6238803699        1.2442323538
 O       -12.7942986988        1.6729687199        2.1791170274
 C       -13.9249217783        0.3520764405        0.4531182975
 C       -12.8538395302       -0.7340845958        0.3688759933
 C       -11.5090212888       -0.1146860748        0.2360253080
 O       -11.3669456351        1.1174697723        0.1407785050
 C       -10.2241069766       -1.1108171179        0.1840274696
 C       -10.0047024888       -1.4504512709        1.7053500326
 O       -10.3175463765       -0.6621961740        2.6167790375
 C        -9.4140066771       -2.8346067739        2.0757272573
 C       -10.3433556048       -2.3513588285       -0.6132327383
 C        -8.9702410412       -0.3235105157       -0.3783129448
 C       -14.3445840368        3.7834222475        2.1006865435
 C       -16.0132429830        2.4341909084        0.7502153508
 C       -11.0634565366        8.3350286279       -3.1396735820
 C       -12.9751808514        6.9949547595       -4.2410625679
 C        -5.3061950253        6.5889239352       -6.0713128553
 C        -6.3704713896        4.3319116103       -6.0168829553
 C        -5.9310028326        4.8930009716        1.7943841450
 C        -6.0334925090        2.3926385753        1.2339310628
 C       -12.2010463382        3.9850676903        5.0195654022
 C       -10.4118724486        4.9566872434        6.6338671072
 H        -8.3136626926        2.3958852401        6.5329663345
 H        -9.1473825289        1.1218989898        7.1650889428
 H        -9.5524927337        2.8001701507        7.6847084442
 H       -10.7981584147        5.7000796976        2.9249225296
 H       -10.8474957854        3.9112367365        2.7222529709
 H        -8.4084664135        5.6979526044        2.0103627155
 H        -9.5974022303        4.9345931673        0.8909102173
 H        -5.3074476508        3.6290112927       -1.5538634907
 H        -5.2447534815        5.2389755018       -1.0833715558
 H        -7.4177183365        5.5706688337       -2.7017393720
 H        -6.9849876284        4.0188133509       -3.3352065919
 H        -8.9842401073        4.6104486869       -5.4073390652
 H        -8.5590432116        5.5212211071       -6.7849746553
 H       -10.9606048427        5.9242388853       -6.3275709413
 H       -10.1847238685        7.3391448129       -5.5977967619
 H       -12.1300349213        4.2390174296       -2.4850279097
 H       -13.6988651351        5.0680389968       -2.5372128806
 H       -13.4193279874        5.3527699355        0.2440529003
 H       -12.0430124697        4.2926660527       -0.1937826064
 H       -14.4240767736        0.5781250902       -0.4501846782
 H       -14.6505210969       -0.0871539406        1.1236264473
 H       -13.1439855246       -1.3506631225       -0.5239691358
 H       -13.0650324687       -1.4353315744        1.2441899850
 H       -10.2191303253       -3.4464474985        1.7760747577
 H        -9.2133950845       -2.9474138539        3.1772655640
 H        -8.5741054366       -3.1272418212        1.3945586829
 H       -10.4556345873       -2.0477103306       -1.6703038878
 H       -11.2238377173       -3.0126551213       -0.4052374560
 H        -9.4493602412       -2.9483366683       -0.6578462039
 H        -9.1497221286       -0.1397372862       -1.4193362995
 H        -8.1604111411       -0.9990580540       -0.2467311702
 H        -8.7871915780        0.6637800927        0.0969483914
 H       -13.3056540330        4.0006324619        2.2116249549
 H       -14.8251337715        3.4470944708        3.0620592792
 H       -14.8900338147        4.7441398143        1.9052526043
 H       -16.1783608146        1.5289674510        0.2315138660
 H       -16.5207238885        3.1533913815        0.1664179582
 H       -16.5733313701        2.3483728721        1.7172313395
 H       -11.8792989383        8.7607288297       -2.5263711040
 H       -10.8099583833        8.9960878984       -4.0072770012
 H       -10.1545533579        8.2718532911       -2.5980201517
 H       -13.2026296540        6.0290292725       -4.6646440168
 H       -12.7839772026        7.6793271853       -5.0938578480
 H       -13.8870435107        7.2476965604       -3.6787166659
 H        -4.2811626844        6.3233753236       -6.1403220777
 H        -5.2810473737        7.6236768972       -5.6747604737
 H        -5.5368389458        6.5941688668       -7.1245859077
 H        -7.1138006749        3.6644840840       -5.5965259128
 H        -5.3696680636        3.7643896442       -5.8369755967
 H        -6.5149695263        4.3795545606       -7.0817608260
 H        -6.0787196551        4.8462909266        2.8785753659
 H        -6.1968807148        5.8608070647        1.4298439520
 H        -4.8379098017        4.7020438161        1.6016850515
 H        -5.0881722415        2.5125040062        0.6722947907
 H        -6.5458620214        1.5331574182        0.8939769744
 H        -5.8367776917        2.1588596617        2.2796192707
 H       -12.5268347679        3.0197495681        4.6830956706
 H       -12.4798334678        4.7385492090        4.2583279633
 H       -12.8436259782        4.1915029331        5.8357994017
 H        -9.6034880913        4.6329096520        7.1776871992
 H       -11.2215965294        5.0170722187        7.3173448914
 H       -10.1747929536        5.9682480238        6.3110136411
 Na      -10.6062924335        1.6003236050        2.7052030342
