117

 C        -9.6139835897        2.2071095916        7.0550950876
 C       -10.2898785293        2.6444520759        5.8621593637
 O       -10.7095937338        1.9301576816        4.9787623213
 C       -10.6007090281        4.1827714815        5.5784951228
 C        -9.5770027055        4.4194022857        4.4013796949
 O        -8.3638170639        4.3119494745        4.6264055635
 C       -10.0759980875        4.7544975674        3.0047909216
 C        -8.9557334369        5.0573398352        1.9705784087
 C        -8.1231317128        3.8318870363        1.6679504037
 O        -8.5709657354        2.7044179393        1.8726116683
 C        -6.7421737354        3.9446212102        0.9394630304
 C        -7.0859665729        3.9112267991       -0.5680649396
 O        -8.2811816682        3.8346093544       -0.8535754356
 C        -6.0676185152        4.2789369740       -1.6458174292
 C        -6.7174031833        4.5975555708       -2.9757489658
 C        -5.7419144104        5.3058724248       -3.9117823158
 O        -4.6539419632        5.6858293381       -3.4597190572
 C        -6.2679056926        5.5207388683       -5.4157238085
 C        -7.7888488891        6.0235813037       -5.3295643895
 O        -8.0033454933        7.0545718224       -4.6834696308
 C        -9.0094040760        5.3739112574       -5.9955559570
 C       -10.3708078959        6.0239694872       -5.6911182107
 C       -10.6489821383        5.8327627218       -4.2112907801
 O       -10.0510139705        4.9769265493       -3.5451102098
 C       -11.7165321875        6.7224775283       -3.4862146960
 C       -12.1231692026        6.2344640136       -1.9636459548
 O       -11.8308064791        6.8887415278       -0.9975111078
 C       -12.7985119259        4.8582212654       -1.8714469956
 C       -13.0788282333        4.2501671721       -0.4769321706
 C       -14.1790049426        3.2283792936       -0.4140279562
 O       -14.5147711155        2.6125759687       -1.4356364874
 C       -14.7059114403        2.7737543303        1.0321408823
 C       -13.8640256777        1.4907010384        1.3015571465
 O       -13.1673780442        1.4913817808        2.2836614907
 C       -13.8817324632        0.3183298955        0.3581808543
 C       -12.7067377803       -0.6274183914        0.7194489015
 C       -11.3081520514       -0.0019824023        0.2511535775
 O       -11.2405975535        1.1520755327       -0.1215770781
 C       -10.0068585084       -0.9156410550        0.4710436903
 C        -9.9339413946       -1.4392314752        1.9904466526
 O       -10.1031185532       -0.6979639188        2.9739991303
 C        -9.4478261804       -2.8270163049        2.1997549503
 C       -10.1128742429       -2.1098663983       -0.5255018760
 C        -8.6746354015       -0.1661415013        0.1186706831
 C       -14.5421962903        3.8231676600        2.2125693878
 C       -16.1633197457        2.3990597229        0.8491995933
 C       -10.9850186206        8.1221945779       -3.2875607412
 C       -12.9869301457        6.8716438995       -4.3651967126
 C        -5.4675597202        6.6650367573       -6.1077448591
 C        -6.1960758442        4.1494350830       -6.1441556501
 C        -6.0652446902        5.3457205104        1.2304043861
 C        -5.8866660546        2.7444915516        1.3653194391
 C       -12.0968871028        4.3736208945        5.2374453917
 C       -10.1504921865        5.0310042430        6.8304698304
 H        -8.7529563673        2.8175085735        7.3200746019
 H        -9.0789326945        1.2255084515        6.9659738364
 H       -10.3490116251        2.2449473629        7.8414728995
 H       -10.6829661030        5.6704228049        3.2712539880
 H       -10.8442057848        4.0410703913        2.7183698217
 H        -8.3292627021        5.8000697436        2.4240770797
 H        -9.3962388178        5.3833479028        1.0394135403
 H        -5.2406441553        3.5532313955       -1.6647210681
 H        -5.5989900384        5.1930203558       -1.3038202360
 H        -7.5146240401        5.2540523372       -2.8968023543
 H        -7.1234905555        3.7225607852       -3.5238788185
 H        -8.9903378925        4.2543223596       -5.8677740706
 H        -8.8665720858        5.4027301380       -7.0902093805
 H       -11.1278032592        5.4343014743       -6.2270429483
 H       -10.4324941406        6.9904559033       -6.0710790049
 H       -12.2102365254        4.2154114709       -2.5665152514
 H       -13.7625263410        4.9353761187       -2.3904177833
 H       -13.2440662279        5.1213331901        0.1910490097
 H       -12.1848482994        3.7333726982       -0.1696327432
 H       -13.6939477613        0.6801624870       -0.6393881505
 H       -14.9340814977        0.0080142584        0.4831744372
 H       -12.8775562305       -1.5716734130        0.1565869457
 H       -12.7675890850       -0.7441237423        1.8533993404
 H        -9.8561680281       -3.4330769527        1.4315771374
 H        -9.9127370301       -3.0982319728        3.1749475931
 H        -8.3711525922       -2.9146137689        2.1480342263
 H       -10.4650486544       -1.7743342813       -1.4972540443
 H       -10.9288096127       -2.8665051213       -0.3365914835
 H        -9.2468505207       -2.7034705003       -0.5140633654
 H        -8.6755894900        0.2692526095       -0.8749932939
 H        -7.8391420209       -0.7985977106        0.2862491250
 H        -8.6938351359        0.6988727001        0.7854412413
 H       -13.6077014344        3.9121710026        2.6618583773
 H       -15.0426394938        3.3512531749        3.0377846321
 H       -14.8987548549        4.8649859136        1.9593835589
 H       -16.4253886546        2.3831822002       -0.2033019117
 H       -16.9237687729        3.0637294899        1.2543513477
 H       -16.3989372781        1.4141299035        1.2611912519
 H       -11.4971068210        8.5589994336       -2.4021367938
 H       -11.1911387023        8.8237864947       -4.1071230853
 H        -9.9307720138        8.0163105934       -2.9794284125
 H       -13.6081583815        6.0043760672       -4.4457431019
 H       -12.5574352568        7.2001403034       -5.3081525586
 H       -13.6895939797        7.5792051104       -3.8926555382
 H        -4.4287968752        6.5244219524       -6.3447944366
 H        -5.4468497021        7.5860784408       -5.5212015178
 H        -5.9322200640        6.8882638786       -7.1493848724
 H        -6.2311537607        3.3526690462       -5.4357749872
 H        -5.1624736254        4.0465533211       -6.6412848637
 H        -6.9295747492        3.9348556861       -6.8759261862
 H        -6.1066416041        5.5974302738        2.2996437927
 H        -6.6905647349        6.0133001731        0.6683351177
 H        -5.0173954358        5.4282410746        0.9228058095
 H        -4.9266343269        2.8064514993        0.8992962585
 H        -6.3417185727        1.8898013238        1.0308250658
 H        -5.6798567516        2.7042552792        2.4154631462
 H       -12.1943143714        4.1468939182        4.1337854120
 H       -12.3800631117        5.4521537912        5.2979473194
 H       -12.7660362348        3.7728117006        5.8274799586
 H        -9.1056200203        5.2827152344        6.7910296534
 H       -10.3846865574        4.6875430288        7.7904083587
 H       -10.7640152514        5.9637232082        6.8250282687
 Na      -10.6943018970        1.6577162417        2.6435461019
