117

 C       -10.6007569340        2.2641969069        7.4180895778
 C       -10.3313761996        2.7178363856        6.0731367611
 O       -10.3803335312        2.0038693449        5.1130771009
 C       -10.3443658069        4.3412712031        5.7827593376
 C        -9.5013182789        4.7556670639        4.4414496675
 O        -8.2728429932        4.8369009207        4.5276535531
 C       -10.1963641521        5.0397952834        3.1264674225
 C        -9.2525021132        5.2941194035        1.9656165415
 C        -8.3554131003        4.0875601273        1.6199743177
 O        -8.6473200440        2.9990206206        2.0863640206
 C        -7.1009506197        4.1944000233        0.7121751036
 C        -7.4858253381        3.8060878943       -0.8073938876
 O        -8.5672938143        3.3342421795       -1.0690930896
 C        -6.4041080747        4.2119202620       -1.8653519775
 C        -6.8178304569        4.0850079426       -3.3202875677
 C        -6.0773574827        5.1661547189       -4.0579160175
 O        -5.2386429543        5.8706423840       -3.5597059161
 C        -6.3738676983        5.3966694596       -5.6247763946
 C        -7.8476052141        5.7526505192       -5.6687210348
 O        -8.2073136570        6.9190806721       -5.6718595015
 C        -9.0395411586        4.7690814891       -5.9270491923
 C       -10.4230081723        5.2685768077       -5.5843147715
 C       -10.6740241835        5.4445007785       -4.1241109282
 O        -9.9767261102        4.8285271632       -3.3424306678
 C       -11.7285112225        6.5485173814       -3.4572501147
 C       -12.0103499358        6.0004736780       -2.0116167225
 O       -11.7502615981        6.6083913973       -1.0190470651
 C       -12.5626038750        4.5473421912       -2.0073750512
 C       -13.5116945370        4.3956613261       -0.6956655635
 C       -14.2977207885        3.0797076258       -0.5168150912
 O       -14.4172710530        2.2358278646       -1.4078945742
 C       -14.7835965091        2.7043527053        0.8704127631
 C       -13.6033860426        1.7991067681        1.2944058963
 O       -12.7315170116        2.2297272103        1.9953321409
 C       -13.6520885995        0.3263715847        0.7827344656
 C       -12.4076688288       -0.5402857442        0.9861109210
 C       -10.9947516077        0.1415277089        0.6116535167
 O       -10.8977847843        1.2607008210        0.1652086576
 C        -9.7582944579       -0.8768663539        0.7190820375
 C        -9.6141041344       -1.2878732055        2.1950833969
 O        -9.6518767155       -0.4427506241        3.0594341837
 C        -9.3570328886       -2.7011803619        2.5965083713
 C        -9.8572219086       -2.0322008452       -0.2978526124
 C        -8.4970596754       -0.0755822828        0.3010010392
 C       -14.9543375001        3.8597325743        1.9291595509
 C       -16.0802684143        1.9047048673        0.7025347693
 C       -11.0167592693        7.8875709985       -3.3123806915
 C       -13.0348364684        6.7165575540       -4.3240618296
 C        -5.5137253651        6.5916273210       -6.0529326467
 C        -6.1443511145        4.1127739055       -6.3697979353
 C        -6.4024361679        5.6204671026        0.7691706475
 C        -6.0483871006        3.1831377350        1.2390025005
 C       -11.8487599961        4.6530995777        5.6965815268
 C        -9.5915448855        5.0585180441        6.9924036844
 H        -9.6885035142        2.5104869999        8.0663012398
 H       -10.8186212416        1.2403205392        7.3735280743
 H       -11.3999010891        2.7991279603        7.9198408149
 H       -10.8207356576        5.9402577650        3.1886518815
 H       -10.9936038718        4.3055924885        2.9285667775
 H        -8.6260729927        6.1778001871        2.2532061519
 H        -9.8054176682        5.6604188424        1.0616079625
 H        -5.5175284554        3.5929895952       -1.6823901949
 H        -6.2232155922        5.2381476543       -1.6394525711
 H        -7.8537902386        4.3343526863       -3.4488410103
 H        -6.6415357042        3.0653869906       -3.7941716457
 H        -8.9099000228        3.7732025347       -5.4912526162
 H        -9.0624363580        4.6740752840       -6.9634181084
 H       -11.1610639624        4.4420693644       -5.8628690529
 H       -10.6631923469        6.1179129727       -6.2112977315
 H       -11.8251557027        3.7487555761       -1.7881349386
 H       -13.0403570342        4.1530537501       -2.8987329739
 H       -14.2350012624        5.2727067281       -0.8208148382
 H       -12.9562673321        4.5843078011        0.2320976637
 H       -13.9058776804        0.3961591393       -0.2871268573
 H       -14.5163373307       -0.1433785085        1.2621581975
 H       -12.6330572723       -1.3460942064        0.3088028468
 H       -12.3506153607       -0.9832002531        1.9657283727
 H       -10.2809499079       -3.2204253243        2.4209371548
 H        -9.1376566191       -2.7743310573        3.7068077018
 H        -8.5202916963       -3.1119600927        2.0134964439
 H        -9.8810719931       -1.6390133890       -1.2863086694
 H       -10.5198644308       -2.8874068310       -0.0783631637
 H        -8.8648792837       -2.3515102593       -0.3606820182
 H        -8.6387935507        0.2142498320       -0.7441658507
 H        -7.5914944172       -0.6569173646        0.3000268359
 H        -8.2590117498        0.8020098110        0.9323262855
 H       -14.1013791273        4.1573704252        2.4269467861
 H       -15.7815501837        3.5381752159        2.5633732869
 H       -15.4627129604        4.7680948549        1.5072479233
 H       -15.9810943201        1.1687866728       -0.0669159655
 H       -16.9142401263        2.5585640388        0.5487917242
 H       -16.3220235496        1.3109516978        1.6023119224
 H       -11.5543753627        8.4849879768       -2.5770870724
 H       -11.0422706114        8.3895134661       -4.2875796886
 H        -9.9696581483        7.8165625969       -2.9472984708
 H       -13.3493381988        5.8288984032       -4.7671056623
 H       -12.8868299307        7.4998321207       -5.0437600621
 H       -13.7056894202        7.2331138531       -3.6708948637
 H        -4.5769139609        6.1897319149       -5.9330989126
 H        -5.6301442074        7.4239617215       -5.4216903795
 H        -5.6428801922        7.0673284543       -7.0688161252
 H        -6.2594723282        3.2807873548       -5.6834195686
 H        -5.0802378737        4.0348409091       -6.8333186255
 H        -6.8652122696        4.0764373514       -7.1628940917
 H        -6.2603706314        6.0095655921        1.7809070708
 H        -6.8465674445        6.3761167217        0.1506154692
 H        -5.4198174891        5.4420706408        0.2724501766
 H        -5.0983975108        3.4419789276        0.7153781074
 H        -6.2606252225        2.1555363389        1.0477115422
 H        -5.9944483354        3.2845667165        2.3414461029
 H       -12.2041712213        3.9751368398        4.9202063710
 H       -11.9331109067        5.6945459113        5.3905159920
 H       -12.3780885846        4.4904419444        6.5739735485
 H        -8.5462444022        4.8338847935        7.0334429345
 H        -9.9528298562        4.7605765057        7.9024228886
 H        -9.5924414787        6.1295968443        6.8680934023
 Na      -10.3984376153        1.7879827574        2.7813783883
