117

 C       -10.5232235570        2.1537562129        7.3968334089
 C       -10.3681798739        2.6832049150        5.9883807471
 O       -10.4426237826        1.9069245771        5.0350770605
 C       -10.3086557164        4.2487928562        5.7139434212
 C        -9.4183112318        4.6577403716        4.4775162667
 O        -8.2075407260        4.8821161263        4.5395747589
 C       -10.1813534014        5.0556099006        3.2082263763
 C        -9.2836810118        5.3487575264        1.9672680542
 C        -8.3272313368        4.1173191588        1.6297583890
 O        -8.5825174470        3.0205504912        2.0835198134
 C        -7.0317383086        4.1732715955        0.7323992059
 C        -7.4768165661        3.8672773172       -0.7813205190
 O        -8.5518121915        3.3818509430       -1.0966032849
 C        -6.3926635770        4.2323014660       -1.7851484025
 C        -6.8329374864        4.0607074198       -3.2796285433
 C        -6.0945884854        5.1430822317       -4.0612348227
 O        -5.1793240710        5.7954126845       -3.5631605397
 C        -6.3929316233        5.3975955010       -5.6084937311
 C        -7.9632797123        5.8995718700       -5.7216669581
 O        -8.2815167712        7.0523167693       -5.4521160848
 C        -9.0683475998        4.7718367914       -5.9709410375
 C       -10.4242725097        5.4104731498       -5.5995518748
 C       -10.5464047104        5.5838136823       -4.0494201693
 O        -9.8664424397        4.8694305457       -3.2868066435
 C       -11.5775284999        6.5456372042       -3.4516122041
 C       -11.9839780393        5.9356331621       -2.0211742374
 O       -11.7475922245        6.6267819694       -1.0360418007
 C       -12.6545050315        4.6173935328       -2.0371011660
 C       -13.5020680865        4.3925430867       -0.6915394119
 C       -14.2563621696        3.0659099266       -0.5947031035
 O       -14.5012031923        2.2953202863       -1.5054194695
 C       -14.7807419073        2.5981394233        0.9006271114
 C       -13.6180850549        1.7112048874        1.4342873177
 O       -12.7109795028        2.2386457468        2.1412032897
 C       -13.6053801196        0.3042358136        0.7872862494
 C       -12.4160510738       -0.6355818791        0.7974836804
 C       -11.0568932758       -0.0311059710        0.5118868008
 O       -10.9051501189        1.1781984378        0.3061026597
 C        -9.7035761941       -0.9270933676        0.5955384134
 C        -9.6257800283       -1.3837688013        2.1907834510
 O        -9.7855796362       -0.5070640352        3.0301368609
 C        -9.4240157238       -2.8171077520        2.5822789257
 C        -9.8759644195       -2.0442308777       -0.3595007435
 C        -8.5723291503        0.0825210079        0.2885204243
 C       -14.9262738946        3.8779371379        1.8115052250
 C       -16.2229607373        2.0173503671        0.7802717882
 C       -11.0241466188        8.0446032460       -3.4397439960
 C       -12.9938942699        6.6777340161       -4.1937060560
 C        -5.4992436514        6.6196617426       -6.0501051668
 C        -6.0523325671        4.0739710909       -6.3683621327
 C        -6.3277836293        5.5430434134        0.8039698521
 C        -6.0587819795        3.0929781111        1.2644046164
 C       -11.7929534644        4.6342541156        5.5744960538
 C        -9.7359176024        5.0982457804        6.9137662351
 H        -9.6061751272        2.1013377280        7.8365461318
 H       -10.9221242511        1.0617261774        7.2769489727
 H       -11.1552906051        2.7026417432        8.0845694009
 H       -10.7646967765        5.9340709916        3.3985906565
 H       -11.0188808382        4.3761808302        2.9959959450
 H        -8.6981792449        6.2724806818        2.1457870926
 H        -9.9170921279        5.5952460890        1.1047419284
 H        -5.6186350446        3.5360496940       -1.5539365561
 H        -6.0900198508        5.2365278391       -1.5360138658
 H        -7.9101044391        4.2252043153       -3.4123341523
 H        -6.6021963895        3.1178643557       -3.6789215555
 H        -8.8224221123        4.0380171132       -5.2177688966
 H        -8.9823153717        4.2850007628       -6.9389528951
 H       -11.3302005666        4.9399305772       -5.9222076834
 H       -10.3820121583        6.4049236100       -6.0839815799
 H       -11.9414876842        3.7745907420       -2.0584655185
 H       -13.2686113820        4.3740191505       -2.9093133595
 H       -14.1536314520        5.2991331534       -0.6798975252
 H       -12.8726443674        4.4110294155        0.2736037208
 H       -14.0498545918        0.4540961970       -0.2085828142
 H       -14.3369185094       -0.1951801046        1.3715864835
 H       -12.7614522205       -1.4067007132        0.0398395399
 H       -12.3233803642       -1.1383621252        1.7851334614
 H       -10.3669045201       -3.3061804896        2.5888337423
 H        -8.9943902512       -2.9061585515        3.6083660855
 H        -8.6962071825       -3.2509894169        1.8100745998
 H        -9.9483541515       -1.6658968057       -1.3725929618
 H       -10.7199396110       -2.6486162545       -0.0300993482
 H        -8.9588264882       -2.6735817145       -0.4854213919
 H        -8.6115272160        0.6029099608       -0.6054810051
 H        -7.6891649202       -0.5426343950        0.1677532181
 H        -8.3277680006        0.6889435564        1.1631812739
 H       -13.9798078825        4.2689630795        2.1959701026
 H       -15.6746985663        3.6824971341        2.6238910958
 H       -15.4051738801        4.6960906523        1.3131120861
 H       -16.3360852507        1.0833035511        0.2775277717
 H       -16.9040146910        2.7311227149        0.4170775851
 H       -16.5573700771        1.7808157530        1.8449393925
 H       -11.7607614373        8.7518480075       -2.9613043723
 H       -10.8086466902        8.3522698828       -4.5278788056
 H       -10.1647396837        8.1312525930       -2.8360963836
 H       -13.4770785787        5.7249431392       -4.3633524689
 H       -12.9088227875        7.2725795281       -5.1121256850
 H       -13.4989821950        7.3636604901       -3.5874731666
 H        -4.4524970230        6.3062262454       -5.9143283472
 H        -5.7094509496        7.5310972170       -5.4547775581
 H        -5.6561186575        6.9765917848       -7.0216780640
 H        -6.2884545530        3.1607170507       -5.7997227778
 H        -4.9515863150        4.1252868841       -6.4992160860
 H        -6.5036146092        4.0507253145       -7.3528610508
 H        -6.3948729273        5.8872662025        1.8218869580
 H        -6.5957519885        6.3250785601        0.1052881310
 H        -5.2405560669        5.3292617607        0.5922844140
 H        -5.0844156459        3.2138660442        0.8248730247
 H        -6.3991141651        2.1128026875        1.0331681590
 H        -6.0176653296        3.2000707300        2.3220152104
 H       -12.1841864390        4.3663395092        4.6328144313
 H       -11.8548507824        5.7282016714        5.7957269058
 H       -12.3623924685        4.0942181144        6.3757213847
 H        -8.7217521959        5.1602307865        6.9781814937
 H       -10.0467081472        4.6297300268        7.8270346372
 H       -10.0633385897        6.1085805003        6.8576626852
 Na      -10.4350523077        1.8909865352        2.8011569967
