117

 C       -10.8872399992        3.3878078790        7.3785108313
 C       -10.4780988547        3.7437971822        5.8872217902
 O       -10.3782473114        2.8467559798        5.0955438069
 C       -10.0962711044        5.1949046843        5.5984754252
 C        -9.5913906982        5.2096544376        4.1025873007
 O        -8.4154500028        5.4686858427        3.8901852030
 C       -10.6057552797        5.1146897755        2.9523156763
 C        -9.9741992080        5.0954675420        1.5018994518
 C        -8.8275448996        4.1674905356        1.4374368062
 O        -8.8064926307        3.0828653209        1.9998196481
 C        -7.4964554012        4.6675661311        0.7997860582
 C        -7.2577203480        4.0507527671       -0.6835337367
 O        -6.9971736533        2.9139472528       -0.8870769648
 C        -7.3564367378        5.0883917499       -1.8603272054
 C        -7.0953507213        4.4165704055       -3.1625131203
 C        -6.3362077014        5.1767896864       -4.2798189697
 O        -5.5180512367        6.0113619515       -4.0750325310
 C        -6.7760489448        4.7394827619       -5.7523918056
 C        -8.3090710023        5.2575464899       -5.9738595924
 O        -8.5621283846        6.4172453582       -5.7535910660
 C        -9.4204557798        4.2873059815       -6.4137281057
 C       -10.7398814036        4.8967733966       -5.9818517675
 C       -10.8819788107        5.0773183691       -4.4964087876
 O       -10.3639324250        4.2662215338       -3.7224630181
 C       -11.7929555956        6.1297968867       -3.8669014903
 C       -12.0757626399        5.4870879147       -2.4721534262
 O       -11.4096019444        5.8270800311       -1.5432621440
 C       -13.0612540965        4.2933794122       -2.1691478557
 C       -13.2299827682        4.0423920729       -0.7063367877
 C       -14.0312853998        2.7131554598       -0.3396158262
 O       -14.2299155195        1.8742906772       -1.1703388695
 C       -14.5710574012        2.4164490123        1.1854966078
 C       -13.5268224763        1.4449710650        1.8261517442
 O       -12.9256870662        1.8140123127        2.7965929731
 C       -13.3268994893        0.1145462107        1.0773347254
 C       -12.1088360397       -0.6082033145        1.6790457243
 C       -10.7218504069       -0.0881412962        1.0709373382
 O       -10.6659088114        0.9651822238        0.4599986819
 C        -9.3704005502       -0.9041223426        1.1530190727
 C        -8.7637196857       -0.7385762724        2.4936130084
 O        -9.1184595222        0.0712915105        3.3021095463
 C        -7.6040322430       -1.6240817618        2.8596894696
 C        -9.5956094425       -2.4039267645        0.7968917615
 C        -8.4147158169       -0.3678521333        0.0811299855
 C       -14.6152016827        3.7330287098        2.0308352793
 C       -15.9320056682        1.7195950830        1.2365183538
 C       -10.9392650628        7.4160289519       -3.6857202358
 C       -13.0520579797        6.3920184440       -4.7801584572
 C        -5.9018580564        5.4723289237       -6.7825000161
 C        -6.5850700497        3.1694664661       -5.8553291263
 C        -7.4642922009        6.1754392575        0.9809225167
 C        -6.3150844124        4.1477497835        1.6892745417
 C       -11.3495091830        6.0547438697        5.7872228673
 C        -8.9096831775        5.5882899100        6.5095241394
 H       -10.0272602908        3.0644831203        7.9265508895
 H       -11.4277431392        2.4693116690        7.3111912038
 H       -11.4600014304        4.2600364559        7.9075160658
 H       -11.2841905690        6.0061540262        3.0370313115
 H       -11.2979246169        4.2780724240        2.9716279110
 H        -9.5229675537        6.0437523000        1.3058690329
 H       -10.6717198416        4.8603016675        0.6912541052
 H        -6.5835532007        5.8872143633       -1.6951550363
 H        -8.2927507230        5.6391102534       -1.7830086628
 H        -7.9888425852        4.0540425046       -3.6328865573
 H        -6.5323583578        3.4377587411       -2.9404387020
 H        -9.2741075413        3.2627094679       -6.0188474648
 H        -9.2290527783        4.1758557267       -7.4849806287
 H       -11.6147012008        4.2632102278       -6.3068732096
 H       -10.8561376832        5.8646813944       -6.4609038868
 H       -12.6276183186        3.3361366061       -2.5375137044
 H       -14.0478067437        4.3193822226       -2.6557198512
 H       -13.7592704035        4.9556147162       -0.3578020006
 H       -12.3548516875        3.8624027627       -0.1781909217
 H       -13.3316281342        0.2954348186       -0.0006676020
 H       -14.2914139981       -0.3590873569        1.4018754019
 H       -12.1814597612       -1.6693783228        1.6088392732
 H       -12.2014089204       -0.3277100258        2.7150704075
 H        -7.9676495159       -2.5296632488        3.4036283405
 H        -7.1653207696       -1.0469266595        3.6752608246
 H        -6.9710210867       -1.9043732471        2.0349375050
 H       -10.0607755078       -2.3622654304       -0.1836734094
 H       -10.0576514950       -2.8863680680        1.6391579091
 H        -8.5755722355       -2.7831151726        0.5825137390
 H        -8.5178146304       -0.6214458958       -0.9587337554
 H        -7.4279909682       -0.8243999895        0.2806733662
 H        -8.1529645291        0.6589673543        0.1901624605
 H       -13.6637158302        4.2962003306        1.7921598896
 H       -14.8041576742        3.5368676902        3.0544571887
 H       -15.4226632625        4.3532094448        1.7430752579
 H       -15.8991418337        1.0307074618        0.3965827251
 H       -16.6934765787        2.5026206804        1.1276105639
 H       -16.1289227541        1.1391831105        2.1020239760
 H       -11.3981073753        8.4056532149       -3.5126188591
 H       -10.1437828600        7.4684487214       -4.4608106926
 H       -10.3885338593        7.2693724735       -2.7822490405
 H       -13.3626491118        5.4765640488       -5.2635678316
 H       -12.8349850192        7.0317655545       -5.5933809991
 H       -13.8208708614        6.8793374392       -4.2499888537
 H        -4.8399746775        5.1906197069       -6.6275717266
 H        -6.0996931764        6.5468054887       -6.7028710385
 H        -6.2883671008        5.1689983474       -7.6756164886
 H        -7.2623727798        2.4898535035       -5.2673229611
 H        -5.6098432883        2.9645638789       -5.5078488370
 H        -6.4839117701        2.7500146982       -6.9126538624
 H        -7.6834498450        6.5065266024        2.0193004803
 H        -8.2290535606        6.7119318204        0.3401777117
 H        -6.4957660741        6.5625955185        0.7728999437
 H        -5.4410309507        4.3176642984        1.1010543007
 H        -6.4567684480        3.0618878485        1.7807623495
 H        -6.2669273578        4.5588369585        2.6747399366
 H       -12.2034316526        5.6192804535        5.3359613007
 H       -11.1805519207        7.0410208861        5.4294275159
 H       -11.5821187163        6.1288251730        6.8699696941
 H        -8.1679462367        4.8537521352        6.5409109259
 H        -9.1941913497        5.6547270706        7.5684345568
 H        -8.5018953985        6.4234233558        5.9665128068
 Na      -10.6034010495        1.7913818217        2.9684658357
