117

 C       -10.7203622688        3.9802305764        7.3447944653
 C       -10.5140313194        4.2004400686        5.8371913163
 O       -10.6257108485        3.3177536696        4.9982642817
 C       -10.0535806012        5.7008214000        5.3796315848
 C        -9.5015915397        5.7022948767        3.8179617228
 O        -8.3205192189        5.8237644470        3.6352833940
 C       -10.4617551897        5.5567590593        2.6940636300
 C        -9.7886248806        5.5834181262        1.3714219989
 C        -8.4486979707        4.7584052229        1.5100083620
 O        -8.5220702135        3.6169603403        2.0205051648
 C        -7.1143922808        5.1457133747        0.8399654665
 C        -7.1302309108        4.2476988902       -0.4590594893
 O        -6.9475267918        3.0463395443       -0.3548047928
 C        -7.2849653914        4.9355289172       -1.8012612881
 C        -7.2262481413        4.1191212817       -3.0318521529
 C        -6.3994838706        4.8349292705       -4.2136165322
 O        -5.4798041334        5.5704305029       -3.8310370997
 C        -6.8059148737        4.5614942526       -5.6745703164
 C        -8.3430177338        5.1683134998       -5.8878833218
 O        -8.5952848203        6.3045067589       -5.5537372764
 C        -9.5097816170        4.3570195045       -6.6069613060
 C       -10.9352929169        4.6909825358       -6.2918684531
 C       -11.2627070336        4.4753890047       -4.7828832533
 O       -11.0124085101        3.3819198556       -4.3511299324
 C       -12.0817699999        5.5582079030       -3.9032530089
 C       -12.1520179304        5.1549925861       -2.4040368049
 O       -11.5253265316        5.6831095633       -1.5177731089
 C       -13.1794346334        3.9720491463       -2.0441640665
 C       -13.4028898169        3.7256361235       -0.5189394011
 C       -14.1815891358        2.4070205278       -0.1740070225
 O       -14.2649515503        1.4761226159       -0.9429468918
 C       -14.6811372813        2.1388055506        1.3102013929
 C       -13.4047319488        1.3761487247        1.8026892981
 O       -12.6034333759        1.9575394042        2.5737515620
 C       -13.2593045476       -0.1537411557        1.5490699839
 C       -11.8666155545       -0.8361539480        1.8078443160
 C       -10.7073002998       -0.1832354347        1.0884321097
 O       -10.8132776702        0.9284732592        0.5676039596
 C        -9.2615106103       -0.8995736294        1.1557814983
 C        -8.6889613696       -0.6700702474        2.5251449325
 O        -8.9746484607        0.2671845229        3.2902435877
 C        -7.6844494010       -1.7756767637        2.9390559671
 C        -9.4175406237       -2.4837177664        0.9031296983
 C        -8.3834661234       -0.2122260415        0.0701333493
 C       -14.9010309122        3.4104676245        2.1254975927
 C       -15.8479374584        1.2074559343        1.4205974382
 C       -11.3944229812        6.9474790958       -3.9994145047
 C       -13.5251774370        5.7175589075       -4.5124906474
 C        -5.8646136892        5.3080621785       -6.6780930086
 C        -6.8273918706        3.0010429484       -5.7685081958
 C        -7.1029605467        6.6485456869        0.5581650384
 C        -6.0113278654        4.7396648797        1.8265139938
 C       -11.3296378792        6.5701344684        5.4938684376
 C        -8.8888810757        6.1527371885        6.3022527528
 H        -9.7426026621        4.1186469894        7.9372044707
 H       -11.1675985261        2.9837963915        7.4633562461
 H       -11.3719231987        4.7164539036        7.6870490619
 H       -11.3379800035        6.2398309450        2.8535619293
 H       -10.9776405047        4.5868419266        2.8365750958
 H        -9.5437618854        6.5950475676        1.0469010644
 H       -10.3908778998        5.1798692636        0.5039298519
 H        -6.4521782502        5.6491775079       -1.8683200185
 H        -8.1946295063        5.5009810299       -1.8241467027
 H        -8.2084567845        3.9532292283       -3.3662155032
 H        -6.7782340102        3.1571549021       -2.8378153950
 H        -9.3555276189        3.3452594739       -6.4857457177
 H        -9.3224368742        4.5514301690       -7.6574940618
 H       -11.4685250757        3.8768044900       -6.8103418925
 H       -11.2818519117        5.6606602355       -6.6506355403
 H       -12.5832994193        3.1022718693       -2.4337894571
 H       -14.1116504975        3.9889165924       -2.6117897644
 H       -13.8956575701        4.6944340821       -0.1500403307
 H       -12.4288914182        3.7292149692        0.0183681121
 H       -13.5698727260       -0.2303618629        0.4923547815
 H       -14.0133250955       -0.7179904578        2.1759252919
 H       -11.9619350496       -1.8787129957        1.5125673028
 H       -11.5842844631       -0.7372075019        2.8870187569
 H        -8.2706066538       -2.6109205006        3.0912198001
 H        -6.9832424601       -1.5600200380        3.7685697316
 H        -7.0582322453       -1.8861907024        2.0277646596
 H        -9.9386617345       -2.5192737316       -0.0523497209
 H       -10.0193552969       -2.9764648865        1.6004682187
 H        -8.3907560948       -2.8779714872        0.8473956905
 H        -8.6313753923       -0.3330518065       -0.9225981352
 H        -7.3041979004       -0.3472278234        0.2472962346
 H        -8.4713841540        0.8894430227        0.1041957392
 H       -14.1127347433        4.1596658886        1.9717976574
 H       -14.8380288583        3.2299701492        3.1915794273
 H       -15.8282648373        3.7977931981        1.7658035260
 H       -16.0256075096        0.7365620363        0.4768319163
 H       -16.7741198628        1.7565893709        1.6042533596
 H       -15.7491081100        0.4904023672        2.3206118734
 H       -11.9683648761        7.8563569704       -3.8526953116
 H       -10.9157852550        7.0756234194       -4.9900525439
 H       -10.5922964184        6.8822873773       -3.3220709919
 H       -14.2080348160        5.0544950662       -3.9618348587
 H       -13.6460389424        5.4993046629       -5.6248787801
 H       -14.1146258458        6.6196690276       -4.3838240717
 H        -4.8832828577        4.9057583239       -6.6971103365
 H        -5.9283747873        6.3345180032       -6.3615264658
 H        -6.3330837450        5.0946204522       -7.6881567387
 H        -7.4500315694        2.4164859070       -5.1471568717
 H        -5.7694774922        2.7052856088       -5.4528753004
 H        -6.9298453358        2.5539715895       -6.7173199647
 H        -7.0658518177        7.1334205872        1.5080680441
 H        -8.0217300492        6.9617879861        0.0865537607
 H        -6.3229547773        7.0501356267       -0.0905054496
 H        -5.0332124467        4.7108392868        1.2419974635
 H        -6.1620243564        3.7389274457        2.1981790932
 H        -5.9261556084        5.5056126137        2.6357114360
 H       -12.0881429010        6.3913983617        4.7744173718
 H       -11.2392995012        7.6877462006        5.4316217936
 H       -11.7865221685        6.4474394331        6.5198261321
 H        -8.1781453153        5.3510268736        6.1728535467
 H        -9.1996137155        6.3361048791        7.2855138095
 H        -8.4433996825        7.1332469456        6.0243662232
 Na      -10.2269645665        2.1923388651        2.8872339647
