117

 C       -10.1840987233        4.8011688308        7.0944841221
 C       -10.2734796500        4.8711546724        5.6166552913
 O       -10.2750377475        3.8266560715        5.0053695275
 C       -10.3099657828        6.1932266953        4.8809314025
 C        -9.5051261090        6.0608195410        3.4886042317
 O        -8.3209072175        6.1416786904        3.5403576704
 C       -10.3867209286        5.9654221827        2.1961889251
 C        -9.6147587019        5.7160962167        0.9116602015
 C        -8.3843835794        4.8388148598        1.0983381105
 O        -8.4479869539        3.7772775431        1.7084371392
 C        -7.0159763158        5.2868988335        0.5347235753
 C        -6.6865540119        4.3288560784       -0.6915543884
 O        -6.7042200028        3.1272876009       -0.5324406655
 C        -6.3172805614        4.9336810719       -2.0402172760
 C        -6.5643287249        3.9357992685       -3.2124198331
 C        -6.2450419742        4.5120930863       -4.6422205817
 O        -5.4466831482        5.4103265387       -4.7579244969
 C        -7.1356524548        3.9787258281       -5.8131461462
 C        -8.5735802777        4.3664794735       -5.5817600412
 O        -8.8406365040        5.0954047129       -4.6484133437
 C        -9.7159826326        3.8405180341       -6.4976433737
 C       -11.0801502321        4.5432474174       -6.1936028379
 C       -11.5169261733        4.1094203493       -4.6938552217
 O       -10.8736331603        3.2858684753       -4.0625142060
 C       -12.6500865552        4.8943950327       -3.9563990716
 C       -12.5390639875        4.4610498343       -2.3948989445
 O       -11.9079139327        5.1693849603       -1.5898268748
 C       -13.3084239566        3.1538801533       -1.8239251782
 C       -13.4219938507        3.0820062178       -0.3178583478
 C       -14.4564092824        2.0768296092        0.1220010419
 O       -15.0569216542        1.3607994752       -0.6385454287
 C       -14.7240373426        1.6983499041        1.6955499410
 C       -13.3167803046        1.2799029104        2.1959418278
 O       -12.5533370645        2.2112599388        2.4361411273
 C       -12.8569204891       -0.1849530211        2.0838596946
 C       -11.3899315721       -0.5583127882        2.2984994970
 C       -10.3997628931        0.2325973025        1.4077670792
 O       -10.7204337976        1.1500735493        0.7366621660
 C        -8.8932483013       -0.2158087332        1.5351237942
 C        -8.3302914463        0.1057502784        3.0807338248
 O        -8.6376263963        1.1226218391        3.6572059160
 C        -7.4659489154       -0.9553819724        3.7182408151
 C        -8.6268518466       -1.7329399522        1.2412043875
 C        -8.0472947162        0.6506855267        0.6073284051
 C       -15.3002545527        2.8561294554        2.4121690048
 C       -15.8494084552        0.5573820265        1.7677318361
 C       -12.2687932503        6.4288899171       -3.8973035560
 C       -14.0256993615        4.7158990019       -4.5584478526
 C        -6.5001295382        4.6911543990       -7.0858357845
 C        -7.0071303602        2.4734871540       -5.9784607598
 C        -6.9609500828        6.8282166915        0.1663839600
 C        -5.8769740773        5.0165591182        1.5591889138
 C       -11.8661982994        6.2731494873        4.5618934202
 C        -9.7534564960        7.3739332124        5.6404182417
 H        -9.2379328180        5.1834589203        7.4165614474
 H       -10.1636606421        3.7863273680        7.4335310575
 H       -11.0672613612        5.4394569028        7.5798036924
 H       -11.0265547649        6.8904223311        2.1728049023
 H       -11.0977391765        5.1737157059        2.4640446448
 H        -9.1689441293        6.6429027113        0.5638449828
 H       -10.3494375419        5.4239174019        0.0993227663
 H        -5.3149204930        5.4239308972       -2.0028370265
 H        -6.9950607158        5.7424585544       -2.1700783662
 H        -7.5528802601        3.5966016165       -3.1090807229
 H        -5.9626917233        3.0119200765       -3.1511808239
 H        -9.7833138196        2.8087948657       -6.4849320201
 H        -9.4749172490        4.1261757494       -7.5117178509
 H       -11.8522145502        4.2659597229       -6.9233866291
 H       -11.0310844414        5.6456908737       -6.2281920870
 H       -12.8401677616        2.1767246977       -2.1840567858
 H       -14.3076059563        3.1076520982       -2.3427509603
 H       -13.7694817888        4.0371720991        0.1617042846
 H       -12.3872810059        2.8398671205       -0.0492190326
 H       -13.1674808483       -0.4828424068        1.0537404077
 H       -13.5108258680       -0.6508403517        2.8922018480
 H       -11.2038644770       -1.6172629908        2.2192054743
 H       -11.1164539748       -0.2510897608        3.3304058138
 H        -7.9303153204       -1.8757104905        3.9047690320
 H        -7.2117004090       -0.5395702169        4.6591838260
 H        -6.5975871121       -1.0646228847        3.0172808430
 H        -8.9428750684       -2.0724369783        0.2611741071
 H        -9.1871466573       -2.3496907433        1.8868953910
 H        -7.5466336562       -1.9187329845        1.2283583940
 H        -8.1693586727        0.6252642324       -0.4709719565
 H        -6.9588339850        0.5830441134        0.8357539255
 H        -8.1904038171        1.7279931565        0.8103217007
 H       -14.5295316272        3.5687009440        2.4956073042
 H       -15.5064745135        2.6468615175        3.4552678994
 H       -16.1375820730        3.3431527715        1.9009085081
 H       -15.9176365933       -0.1257065641        0.9426678741
 H       -16.7920170167        1.0716642358        1.7781276005
 H       -15.7707106566       -0.0261083272        2.7296389159
 H       -12.8019552446        6.8994536842       -3.1197703665
 H       -12.5775235154        6.8566879073       -4.8092328545
 H       -11.1478898427        6.4797718609       -3.8652540261
 H       -14.4588264763        3.7610749224       -4.3662919549
 H       -13.8206944821        4.8955628950       -5.6466755591
 H       -14.7658530600        5.4144402191       -4.1673791472
 H        -5.4072027573        4.5188955603       -7.0884067470
 H        -6.6785126293        5.7661672994       -6.9182340653
 H        -6.9662604470        4.3773992195       -8.0565988512
 H        -7.2930876203        2.0384544232       -5.0171750272
 H        -5.9340794914        2.2015481167       -6.2161900008
 H        -7.6822309477        2.0737069229       -6.7035354084
 H        -7.1669029518        7.4655876497        1.0142004891
 H        -7.6528547643        6.9896762838       -0.6495408105
 H        -5.9782782580        7.0988432677       -0.3113925464
 H        -4.8692712121        5.2558170140        1.1342872175
 H        -5.8165170374        3.9830982965        1.9040647744
 H        -6.0778475798        5.7004118197        2.4159235274
 H       -12.2109549756        5.3725945073        3.9991904789
 H       -12.1399686383        7.0796080121        3.8544658021
 H       -12.4372989345        6.4130442225        5.4375434577
 H        -8.7157722694        7.0406264739        5.9128366601
 H       -10.3230565757        7.5831317069        6.5303316522
 H        -9.8431964206        8.2820828799        5.0310438115
 Na      -10.2535304573        2.6879873995        2.9258782123
