117

 C        -9.2907485753        6.6845240261        5.7701741465
 C        -9.9924028745        5.7777082210        4.7606643201
 O        -9.6827882175        4.6159792156        4.6055328913
 C       -11.1175948500        6.4569990133        3.9386581321
 C       -10.4491189349        6.5282149030        2.4494662214
 O        -9.4109250397        7.1632735034        2.3227721254
 C       -10.9271748424        5.7368094571        1.2478699420
 C        -9.7723178333        5.5906253177        0.1720250902
 C        -8.4974408645        4.8091389961        0.6855032701
 O        -8.6072926698        3.6989266487        1.2062741283
 C        -7.0602829398        5.2751368984        0.2515232746
 C        -6.8131368380        4.1545904328       -0.9101191853
 O        -6.7072396464        3.0097425688       -0.6000648759
 C        -6.6482327574        4.7334452831       -2.2931650992
 C        -6.4930706502        3.6099726160       -3.3859546687
 C        -6.3136073740        4.2760614827       -4.7424079909
 O        -5.4321934341        5.0242987829       -4.9762158495
 C        -7.2535566415        3.7714880301       -5.8644004976
 C        -8.7767728953        3.8941143060       -5.3772880146
 O        -9.1790725913        4.8776458794       -4.8135359479
 C        -9.8358175432        2.7464270199       -5.7448617008
 C       -11.3276777930        3.1415942743       -5.4052901686
 C       -11.6036614958        3.4919256362       -3.8986649118
 O       -10.8367036741        3.1804774265       -3.0070125278
 C       -12.6235151523        4.6651486500       -3.5350462320
 C       -13.0123383656        4.5557991868       -2.0407459461
 O       -12.6294171436        5.3319467226       -1.2237975302
 C       -13.8612385128        3.2924178797       -1.5033011930
 C       -13.3256380463        2.7986612410       -0.1625421852
 C       -14.3632553344        1.7929203286        0.4461542571
 O       -14.9613801663        1.0394176943       -0.2818944687
 C       -14.4279808813        1.6488978200        2.0632395462
 C       -12.8892417689        1.3362944085        2.4168971569
 O       -12.2318610722        2.2134314272        2.9531821769
 C       -12.4667353450       -0.1239440828        2.3229205712
 C       -11.0435456637       -0.4533182597        2.7537651264
 C        -9.9890868064        0.2416045438        1.9560230197
 O       -10.2115920190        1.0351244271        1.0957876927
 C        -8.4340772196       -0.1302724141        2.2022890996
 C        -7.8964531442        0.5077236589        3.4595648625
 O        -8.2850665291        1.6287092082        3.8199034493
 C        -6.6644299968       -0.0816046330        4.2467312450
 C        -8.3178465288       -1.7050449877        2.1695270249
 C        -7.5564077150        0.4142271595        1.0495672070
 C       -14.9350406300        2.9940639319        2.5730668172
 C       -15.3196833551        0.4193357061        2.4170262480
 C       -11.8220141821        5.9651221614       -3.6789409805
 C       -13.9492100098        4.6462884218       -4.4320203568
 C        -7.1863059996        4.6016608976       -7.1314503762
 C        -6.8833870896        2.3137353173       -6.1985898038
 C        -6.8294125969        6.7580852055       -0.1106801549
 C        -6.1391612511        5.0285512301        1.4591086035
 C       -12.3860126870        5.5214813033        3.8689897662
 C       -11.3643598771        7.9445318695        4.2946342255
 H        -8.6409873982        7.4609765152        5.3501114186
 H        -8.7250566045        5.9906127383        6.5013839957
 H        -9.9349036309        7.1442133978        6.4838600759
 H       -11.8505833589        6.1677210993        0.7792863701
 H       -11.2185264472        4.7315740598        1.5985289171
 H        -9.4842497632        6.5756678015       -0.1970431602
 H       -10.0947785124        4.9128749433       -0.6826136764
 H        -5.7759604245        5.4172822620       -2.3240502687
 H        -7.5325772952        5.2783430338       -2.4459919389
 H        -7.3052418029        2.9144941935       -3.4209534254
 H        -5.5344783212        3.0793838588       -3.1734675068
 H        -9.5233813404        1.8042642458       -5.4172473432
 H        -9.8357133795        2.7090934960       -6.8400337409
 H       -11.9829818553        2.3111451600       -5.6458954089
 H       -11.6875193223        3.9852825775       -6.0006642110
 H       -13.7645257464        2.4718534349       -2.3206574349
 H       -14.9730320545        3.5224406287       -1.3220188751
 H       -13.0037076869        3.5851607855        0.5600410328
 H       -12.3521965335        2.2557492819       -0.2654419207
 H       -12.7717602870       -0.5213888694        1.3133374492
 H       -13.2407986361       -0.7032622156        2.8884876569
 H       -10.8655779487       -1.5095466898        2.7897272794
 H       -10.8365439788       -0.1496572986        3.7914076542
 H        -7.0405725990       -0.8104152076        4.9570840384
 H        -6.0107848698        0.6526891370        4.6830639507
 H        -6.0227876047       -0.5280106435        3.5276529700
 H        -8.8982546014       -2.1892982333        1.3720185440
 H        -8.8146049186       -2.0781391622        3.0755185420
 H        -7.3074067190       -2.1058944195        2.0420771579
 H        -7.8479526860       -0.2348392477        0.1479854216
 H        -6.4791492569        0.2037006415        1.2313372635
 H        -7.6484341347        1.4700461320        0.8222097640
 H       -14.1184421997        3.6306111229        2.4883932035
 H       -15.2202667517        3.1232110161        3.6284273554
 H       -15.7300153644        3.3622660282        1.8755230791
 H       -15.1750334004        0.1151411135        3.4613890087
 H       -15.1201985392       -0.4430403330        1.8331901635
 H       -16.3123792186        0.7211819988        2.2574469418
 H       -12.4723856943        6.8293703213       -3.4701824190
 H       -11.4024254661        6.0723093990       -4.6968527612
 H       -10.9669443074        5.9496226002       -2.9775966961
 H       -14.4605198967        3.7659975139       -4.1837793914
 H       -13.5949781651        4.7184045414       -5.4364974152
 H       -14.6002222566        5.4730885050       -4.1633013955
 H        -6.1308835011        4.4802573729       -7.5978646877
 H        -7.3654216801        5.7147472610       -7.0021940784
 H        -7.9426578548        4.3648576915       -7.8404151768
 H        -7.0780324968        1.5147283887       -5.4207186775
 H        -5.8470690486        2.2937240278       -6.4313686787
 H        -7.4517561255        2.1659668848       -7.1199693530
 H        -7.1513547994        7.4197671020        0.6840228019
 H        -7.3257319431        7.0681290079       -0.9965481792
 H        -5.7762270826        6.9880183951       -0.4308386276
 H        -5.1506886577        5.1911250374        1.1936722444
 H        -6.1259200169        4.0841209860        2.0022667539
 H        -6.4364710506        5.7585811671        2.1509949396
 H       -12.0503028050        4.4923854594        3.6288982969
 H       -12.9593502982        5.9111432114        3.0411561053
 H       -12.9133541408        5.5806949073        4.7557013783
 H       -10.3931585920        8.4874199871        4.2391895676
 H       -11.6727966074        8.0753903696        5.3669219263
 H       -12.1265180554        8.4303716302        3.6990574287
 Na       -9.8217015344        3.0514073959        2.8543105768
