117

 C        -9.3092179329        6.0667560578        6.1348258679
 C       -10.0657854188        5.4374689768        4.9243769467
 O        -9.9331240675        4.2717292355        4.6983879397
 C       -10.9536800154        6.4511821226        4.0008201515
 C       -10.2338747012        6.4873781971        2.6020917006
 O        -9.0888646033        6.9201800215        2.5273252310
 C       -10.9230196563        5.7424030998        1.4068754803
 C        -9.8456097592        5.6813170820        0.2321276137
 C        -8.6896075373        4.7606912709        0.6683819936
 O        -8.7719573070        3.7200520907        1.2887664482
 C        -7.2119323044        5.2075899222        0.2777389500
 C        -6.7487830252        4.2473466963       -0.8421755282
 O        -6.4083639490        3.1079978861       -0.6120793730
 C        -6.5246942730        4.8185386008       -2.3062833556
 C        -6.6521818529        3.7139039567       -3.3420428286
 C        -6.3748814788        4.3190794737       -4.7374685340
 O        -5.5946504767        5.1725265033       -4.9810770781
 C        -7.3082594777        3.7721741753       -5.8995587748
 C        -8.7628788577        4.0025301855       -5.3965657047
 O        -9.0099169020        4.8887249404       -4.6029870685
 C        -9.8338059267        3.0247315531       -5.9136979135
 C       -11.1758850222        3.5536776374       -5.5134052930
 C       -11.3608628693        3.6999908043       -3.9791896654
 O       -10.8402696013        3.0335897109       -3.1059489134
 C       -12.4711573144        4.7845508391       -3.5804687283
 C       -12.7906661916        4.6082883142       -2.0692101621
 O       -12.4707428409        5.4497894656       -1.2617568902
 C       -13.6598833398        3.3563322627       -1.6489523663
 C       -13.2567244613        2.7298793614       -0.2562571479
 C       -14.3444897783        1.8723598772        0.3940230747
 O       -15.0067230714        1.1424605024       -0.3062109677
 C       -14.4444218980        1.7023857727        1.9413850887
 C       -12.9352525008        1.3822222767        2.4092463055
 O       -12.3246001817        2.2708933477        2.9714358045
 C       -12.4013466193       -0.0420258149        2.2224421905
 C       -11.0134807716       -0.2892661361        2.7111423052
 C        -9.8789185662        0.1736384080        1.7378965805
 O       -10.1924825947        1.0023241209        0.9059273703
 C        -8.4005892074       -0.2018840273        2.0428590127
 C        -7.9693078236        0.4909400261        3.3691734905
 O        -8.6403456652        1.4138030407        3.8159809361
 C        -6.7849716868       -0.0866319036        4.1169410645
 C        -8.2983451284       -1.7381185697        2.2532637334
 C        -7.5584584476        0.2299385498        0.8355298106
 C       -14.7364785904        3.0836974639        2.5858488782
 C       -15.4510504732        0.6517925426        2.3049810468
 C       -11.9658714648        6.2319087121       -3.8447584051
 C       -13.7471296180        4.3451438625       -4.4618293879
 C        -6.9790916625        4.6401075043       -7.1257307319
 C        -7.0985779711        2.2782656766       -6.2025608033
 C        -7.0698245163        6.7211805537       -0.0302527657
 C        -6.3430572336        4.8595740680        1.4990279871
 C       -12.3776759261        5.8462330523        4.0395922554
 C       -11.0727568881        7.9421980572        4.5535357221
 H        -8.8389515179        6.9704270086        5.7054435232
 H        -8.6382954639        5.3159552329        6.5876766225
 H        -9.8524022130        6.4228591245        6.9204539025
 H       -11.8251069575        6.2774084983        1.0903123833
 H       -11.2764943850        4.7642291260        1.6558256061
 H        -9.3953506957        6.6432433535        0.1246550461
 H       -10.2487078307        5.3575757814       -0.7286121860
 H        -5.5191275879        5.2061867209       -2.3615408261
 H        -7.2295946648        5.6306640065       -2.6048107915
 H        -7.6901102163        3.3569106303       -3.3817131194
 H        -6.0050624070        2.8761100079       -3.1927183646
 H        -9.6005319054        1.9950375180       -5.5665184994
 H        -9.7248825814        2.9783709063       -7.0649045409
 H       -11.9879822059        2.9018241817       -5.8288078773
 H       -11.3307747700        4.5852805661       -5.8833296770
 H       -13.6085639357        2.4836150965       -2.3186840763
 H       -14.6506577488        3.6980822144       -1.6209323656
 H       -12.8657058752        3.4359667014        0.5037129217
 H       -12.3886074763        2.0811782946       -0.3472643020
 H       -12.4740479841       -0.3427954737        1.2106426452
 H       -13.1700215931       -0.6578868794        2.6597682827
 H       -10.8820410782       -1.3683478606        2.8992839495
 H       -10.7933776508        0.2474721357        3.6706683774
 H        -7.0813602508       -1.0874883452        4.5544693149
 H        -6.5486446845        0.6844052110        4.8780883944
 H        -5.9062789346       -0.1302537298        3.5521297232
 H        -8.6503783091       -2.3271282240        1.4394262376
 H        -8.8700059334       -2.1492873002        3.1393156464
 H        -7.2763050384       -1.9530526154        2.4875782719
 H        -7.9088869958       -0.1731062644       -0.1460375448
 H        -6.6674667137       -0.3621446115        0.9329086146
 H        -7.2336765465        1.2468719662        0.7676572277
 H       -13.9099573972        3.7414621377        2.3433449310
 H       -14.7174269015        3.1225673047        3.6772775529
 H       -15.7077636824        3.4997751718        2.2774274323
 H       -15.0911606173        0.0278499321        3.1983620762
 H       -15.5057273404       -0.0821611748        1.4898840357
 H       -16.3988088896        1.0906219905        2.4634489585
 H       -12.8548929637        6.8865117614       -3.7363321704
 H       -11.5039657859        6.3632404993       -4.8128256957
 H       -11.3377216378        6.5592309585       -3.0673811012
 H       -13.7557626959        3.2464519180       -4.3635217933
 H       -13.6687418273        4.7140421663       -5.4907238819
 H       -14.6827926166        4.7303060159       -3.9488832828
 H        -5.9747363832        4.4024448787       -7.4719048703
 H        -7.0119175770        5.6878231615       -6.9722662157
 H        -7.7014005336        4.5048254269       -7.8753908030
 H        -7.1335314791        1.7427270627       -5.2347727010
 H        -6.1129249168        2.2023561579       -6.4446285754
 H        -7.7111611248        1.9024714876       -7.0231393421
 H        -7.2930336918        7.2511054238        0.9001042669
 H        -7.6243162946        7.1017461892       -0.8672044541
 H        -6.0002105502        6.9906443400       -0.2229701254
 H        -5.3025824969        5.0416606963        1.2201719620
 H        -6.3218909944        3.7380383951        1.7113335772
 H        -6.6233069743        5.3594899455        2.4558862184
 H       -12.3071208155        4.7350658312        3.8474783987
 H       -13.0529093290        6.3408806087        3.3233553697
 H       -12.7971012788        6.0835910158        5.0389006579
 H       -10.1477050539        8.4687876004        4.5684208522
 H       -11.5127641750        8.0534321815        5.5685933326
 H       -11.7179440852        8.4071272282        3.8740935549
 Na      -10.2034633199        2.8023396753        2.8451746116
