117

 C       -10.3130662604        8.0608809257        4.6035930555
 C       -10.7198196437        7.0023162913        3.6374660180
 O       -10.5549572905        5.8250014743        3.8423407033
 C       -11.3481970637        7.4945338646        2.3006895509
 C       -10.3378983958        6.8912916305        1.2090485611
 O        -9.3184642137        7.5570491935        1.0084223906
 C       -10.5422984214        5.4986402590        0.7404217597
 C        -9.3829762080        4.9226567650       -0.0623170472
 C        -8.0086804813        4.8900206995        0.6767549613
 O        -7.9453672265        4.2444891617        1.7358264513
 C        -6.7644863761        5.3044318706       -0.1222396377
 C        -6.6867712054        4.2293249522       -1.2460156544
 O        -6.3753036650        3.1093317133       -0.9855221320
 C        -6.9714357071        4.6418253238       -2.6586659412
 C        -6.9631850920        3.4052832961       -3.5524182579
 C        -6.8308692047        3.7794044513       -5.0417208505
 O        -6.1766803027        4.7543285882       -5.3646066676
 C        -7.7360884830        3.0326605405       -6.0397966738
 C        -9.2096266317        3.3147374252       -5.6369306163
 O        -9.5976769386        4.4800285957       -5.7477916583
 C       -10.1940661128        2.2417399659       -5.2343439920
 C       -11.6805158593        2.6144770630       -5.1111741516
 C       -12.0108630605        3.0013749060       -3.6468689049
 O       -11.2039620378        2.6391697994       -2.8346499058
 C       -13.2538690296        3.8401939814       -3.3388119597
 C       -13.7515537776        3.7532478821       -1.8636147544
 O       -14.3154327695        4.6624854414       -1.3294545866
 C       -13.5671276147        2.3821033941       -1.1325619938
 C       -13.8902940573        2.5696010459        0.2576586820
 C       -13.6837401096        1.3075572469        1.1550853503
 O       -13.3690161666        0.2159582886        0.6582586316
 C       -13.9094763329        1.2921303525        2.7118178768
 C       -12.4256308282        1.3224321905        3.1931452830
 O       -11.8593650924        2.3304659243        3.6388707005
 C       -11.7367208489       -0.0471063654        3.2912459767
 C       -10.1909067002       -0.1459628266        3.6247507826
 C        -9.2394266295        0.6570275543        2.6895972624
 O        -9.7080158399        1.2963169621        1.7697619253
 C        -7.6913382091        0.4513319169        2.9606095034
 C        -7.5181503224        1.2832624850        4.2696189453
 O        -8.2953273069        2.1607266692        4.5919518621
 C        -6.2508408908        1.0574816908        5.0994914343
 C        -7.2924225711       -0.9885370704        3.1670924602
 C        -6.7764851417        1.0664044193        1.7764391104
 C       -14.5667715641        2.5606935905        3.3264600746
 C       -14.7011237885        0.0182976549        3.0435809547
 C       -13.0814046324        5.3363181674       -3.6501077347
 C       -14.3094104459        3.3259759491       -4.3094649936
 C        -7.4968015928        3.5978677064       -7.4488299297
 C        -7.3313124905        1.4886438550       -6.0609232389
 C        -6.8822035814        6.7368170993       -0.6158159673
 C        -5.5157193284        5.2207953480        0.7638447793
 C       -12.8215458138        6.9820630894        2.2353499989
 C       -11.4305645179        9.0214580508        2.1301135328
 H        -9.8946877300        8.8526247660        4.0598436276
 H        -9.6226247583        7.5557964085        5.3154085297
 H       -11.0471180753        8.4006598416        5.4018259366
 H       -11.3929002439        5.4621715186        0.0176179190
 H       -10.8714902011        4.9694578720        1.6384004215
 H        -9.3009550357        5.5015442621       -0.9799175412
 H        -9.5977999412        3.8596492048       -0.3249400031
 H        -6.2137922083        5.3869064448       -2.9816230080
 H        -7.9886891654        5.0447437365       -2.7159003618
 H        -7.8928773062        2.8052903661       -3.2840858378
 H        -6.1399509957        2.7162635663       -3.3478565402
 H        -9.8334871608        1.7448814650       -4.3568575927
 H       -10.2173055977        1.3539063628       -5.8800588200
 H       -12.2827484951        1.7150578744       -5.4013108132
 H       -11.9726651719        3.4156346357       -5.8623754510
 H       -12.5190492633        2.0262750429       -1.2438170014
 H       -14.2031959315        1.6653108422       -1.6191650223
 H       -14.9141721648        2.8499054521        0.5364217518
 H       -13.3006805053        3.3610294465        0.6973108016
 H       -11.9826971562       -0.7764608067        2.4893237217
 H       -12.3425150143       -0.5455987309        4.0884437855
 H        -9.8455170995       -1.1595677100        3.5621787873
 H       -10.0379394447        0.1343231937        4.6819403169
 H        -6.2920431725        0.0356326962        5.5357234923
 H        -6.0728017558        1.7711377531        5.8732818032
 H        -5.3361878647        1.0281939277        4.4318326963
 H        -7.6103320115       -1.4850148764        2.2947304052
 H        -7.5862859135       -1.4693635253        4.0847195419
 H        -6.2268633754       -0.9998395947        3.1793192308
 H        -6.8671133896        0.3283785181        1.0358086705
 H        -5.7835717350        1.1781539086        2.2158578777
 H        -7.1635182484        2.0259774633        1.3673642327
 H       -14.0015290485        3.4575076779        2.9288656270
 H       -14.6868508232        2.5219525486        4.3855780057
 H       -15.5395207039        2.6343940978        2.9457872810
 H       -14.8513559418       -0.1672655278        4.0739693146
 H       -14.2676480187       -0.8015607698        2.4772544618
 H       -15.7228327663        0.2525883812        2.6634769153
 H       -13.8141623404        5.9686110166       -3.1996654349
 H       -13.1573240719        5.6412989425       -4.6507889979
 H       -12.1258593456        5.7175145687       -3.2511044274
 H       -14.2042847653        2.2377733076       -4.4074666088
 H       -14.2529910553        3.7234223694       -5.2730469162
 H       -15.3404309463        3.5863853113       -4.0351206459
 H        -6.5893620774        3.2685571508       -7.9184455701
 H        -7.4019811636        4.6811621084       -7.3863643303
 H        -8.2929777961        3.2803974115       -8.1087115696
 H        -7.6484654029        0.9955100881       -5.1495366340
 H        -6.2255004635        1.3990180485       -6.1327976275
 H        -7.7868468317        0.9482136972       -6.8827722393
 H        -7.0448214518        7.3118932540        0.2998031919
 H        -7.6112905863        7.0075316651       -1.3960314316
 H        -5.8834333267        6.9534902513       -0.9235465401
 H        -4.6735484338        5.4561209391        0.0909812934
 H        -5.4448851031        4.2216744930        1.0662266567
 H        -5.4513433059        5.9137736236        1.6240610969
 H       -12.7456396592        5.8763062925        2.2830554657
 H       -13.4215409305        7.1768371314        1.3330391849
 H       -13.4840775098        7.3251395830        3.1075794517
 H       -10.5405903909        9.6537393209        2.2033181823
 H       -12.1227921549        9.3576430877        2.9535337460
 H       -11.9499240825        9.3303640270        1.2066294940
 Na       -9.8587948230        3.4330204254        3.2230739423
