117

 C       -10.6435499352        7.7905461494        4.8301283177
 C       -10.8413812399        6.8337312170        3.5949584710
 O       -10.4872609445        5.7112204661        3.7578164624
 C       -11.3225196255        7.4344736460        2.2487612324
 C       -10.3190917015        6.8918551125        1.1652139275
 O        -9.4155421926        7.6752269451        0.8111874663
 C       -10.5624742397        5.5297991212        0.6240205520
 C        -9.3959732698        4.9455067705       -0.2224430772
 C        -8.0903227624        4.9297497359        0.6292180893
 O        -8.1685611257        4.7527851423        1.8363423797
 C        -6.7226418186        5.2457601330       -0.0529662983
 C        -6.5109751326        4.0954806519       -1.2058972644
 O        -6.0760679569        3.0186142078       -0.9198849180
 C        -6.7443030911        4.5068618993       -2.6967884319
 C        -7.1490178625        3.3743207370       -3.7162968069
 C        -6.9713817002        3.7526032855       -5.2160745796
 O        -6.2059576818        4.6329577413       -5.5374858761
 C        -7.8583409133        2.9408167136       -6.2685354703
 C        -9.3899505541        3.2550071917       -5.9484367304
 O        -9.7144031615        4.4338938929       -6.0342518903
 C       -10.3818412759        2.1156836228       -5.4830364841
 C       -11.7872360154        2.5909555114       -5.2205230337
 C       -12.0807069480        2.7617874856       -3.6866668608
 O       -11.2731369530        2.6168014283       -2.8091603218
 C       -13.4134058257        3.5775055328       -3.4401817388
 C       -13.8528635556        3.6715895688       -1.8128914281
 O       -14.0746279705        4.7433553563       -1.3430097746
 C       -13.8544595778        2.2749477739       -1.0944679763
 C       -13.9421975004        2.5101263069        0.3908029302
 C       -13.7715187122        1.2155594542        1.1565529972
 O       -13.4384182054        0.1033879289        0.7167446589
 C       -13.8200213740        1.2890333665        2.7912132150
 C       -12.3573981071        1.3621033074        3.2179134086
 O       -11.8330798075        2.4159614030        3.6192932657
 C       -11.5530467436        0.0498329416        3.2144001618
 C       -10.1545592332        0.1796820510        3.7982966536
 C        -9.0993559160        0.8309837944        2.8788488842
 O        -9.4055060518        1.6400876018        1.9924460894
 C        -7.6132137442        0.6154170873        3.2436919019
 C        -7.2588830704        1.5763720850        4.4246242411
 O        -8.0551130568        2.5064693798        4.5876002560
 C        -6.1292917308        1.2387431276        5.3241908665
 C        -7.2777047098       -0.8417234765        3.4918687962
 C        -6.7646411627        1.2128796942        2.0271035082
 C       -14.6661712640        2.4743302840        3.2219211350
 C       -14.5606559328        0.0016455837        3.2519884500
 C       -13.1628801030        4.9547212484       -4.0678984763
 C       -14.6068876744        3.0175109152       -4.1766298684
 C        -7.5074471164        3.4725334715       -7.6581870432
 C        -7.4936376211        1.4269490054       -6.2199011322
 C        -6.6040930912        6.6715775154       -0.5302652308
 C        -5.5533288580        5.0808477517        1.0443522896
 C       -12.8764814262        6.9502592368        2.0576850334
 C       -11.3059225993        8.9557338265        2.2083077361
 H        -9.7862174898        8.2815024599        4.6732767345
 H       -10.6625589909        7.2410827774        5.7797366529
 H       -11.4246098711        8.5441430757        5.0191267205
 H       -11.4926607428        5.6171418513        0.0685324174
 H       -10.8421503025        4.8775648630        1.4521695790
 H        -9.2145325977        5.5824919467       -1.0599444986
 H        -9.6204076132        3.9522735546       -0.6027066905
 H        -5.8053904620        4.8733531039       -3.1500987908
 H        -7.5040326251        5.2473742353       -2.6676877213
 H        -8.1157167986        3.0171498118       -3.5740776835
 H        -6.4804857623        2.5167852205       -3.5551935822
 H       -10.0081177493        1.6983304125       -4.4889542895
 H       -10.3157077832        1.2196801836       -6.1527742868
 H       -12.6266666340        2.0920428142       -5.6582558068
 H       -11.8781918046        3.5890476619       -5.5795584996
 H       -13.0291502161        1.7183257990       -1.5338266901
 H       -14.7867372778        1.8222177035       -1.3807855322
 H       -14.8352616624        2.9310939389        0.7300159787
 H       -13.0829169399        3.1216641935        0.7793807860
 H       -11.4809507198       -0.3369529336        2.2174122030
 H       -12.0547715118       -0.7766799341        3.6416860946
 H        -9.7669796570       -0.8165175708        4.1310049873
 H       -10.2355616233        0.7808452740        4.7245244027
 H        -6.2189312796        0.3694693085        6.0188865170
 H        -5.9494056138        2.0826478972        5.9096599791
 H        -5.2776080263        1.1050604818        4.7069416929
 H        -7.2873224806       -1.3574924948        2.5222640139
 H        -7.7564721629       -1.4946990107        4.3167868252
 H        -6.2048969119       -0.7797445176        3.7776927537
 H        -7.0678027517        0.7805856686        1.0948970023
 H        -5.7129170333        1.1804510318        2.3056627874
 H        -7.1513093905        2.2514283100        2.0219673490
 H       -13.9695246446        3.3733354868        3.1070531561
 H       -14.8553964934        2.4830016132        4.2969896910
 H       -15.6030844110        2.6225564744        2.6920604096
 H       -14.2382930185       -0.1197831353        4.3133109493
 H       -14.1976739720       -0.8618949823        2.7252950361
 H       -15.6209731927        0.1140949246        3.2754366751
 H       -13.9533451281        5.6646515386       -3.7002748127
 H       -13.2480333624        5.0128815731       -5.1692938331
 H       -12.3450021283        5.5297183079       -3.7143505498
 H       -14.8910057259        2.0446969683       -3.7735355067
 H       -14.4790281658        2.9228626902       -5.2389322212
 H       -15.4859941090        3.7105410419       -4.1492895025
 H        -6.4467531463        3.5799590260       -7.6891496439
 H        -7.8001121658        4.5070077571       -7.8034159219
 H        -7.6385977886        2.7115099119       -8.4932285464
 H        -7.4228202446        1.0582342128       -5.1601342063
 H        -6.5406042266        1.2017341722       -6.6110383715
 H        -8.2614376832        0.9331303584       -6.8223039774
 H        -6.4731392871        7.2718614110        0.3755910955
 H        -7.4254210097        6.9887627959       -1.1324331975
 H        -5.7001602796        6.7627407307       -1.1632267269
 H        -4.6881436362        5.7479554483        0.9571474686
 H        -5.2566731807        4.0634368242        1.1752196172
 H        -6.1305788452        5.3140066170        1.9442073283
 H       -12.8875322411        5.9130889657        2.1415322159
 H       -13.1708174679        7.1008141236        1.0729888333
 H       -13.7198061609        7.3669772065        2.6145956378
 H       -10.3465240990        9.4165629797        2.1784255768
 H       -11.8761833152        9.4726305699        3.0122422067
 H       -11.8365658630        9.1676423192        1.3312630512
 Na       -9.6897088858        3.6900656240        3.3499987047
