117

 C       -11.1501428870        7.6632178855        4.7680257655
 C       -10.9659456388        6.6667149293        3.6245665572
 O       -10.6855716130        5.5310185406        3.8746263304
 C       -11.3365167205        7.3162994573        2.2413305336
 C       -10.3496699754        6.7737356360        1.0251982113
 O        -9.4889871855        7.5796398281        0.7519912915
 C       -10.5745080161        5.4536105957        0.4046083903
 C        -9.3371168595        5.0440561698       -0.4083128207
 C        -8.0753087944        5.0009007387        0.4482028959
 O        -8.1841862658        4.6616266752        1.6286314664
 C        -6.6364875108        5.0960696725       -0.1650981193
 C        -6.5760343652        4.0163944565       -1.3059330582
 O        -6.3538913329        2.8647581743       -1.0112969178
 C        -6.7569422103        4.5225440271       -2.7360430189
 C        -7.3610590772        3.3615928833       -3.5929988256
 C        -7.1214990997        3.6781060904       -5.0800468453
 O        -6.3327085699        4.5135541717       -5.4514295865
 C        -8.0092379429        2.9146147717       -6.1236619729
 C        -9.5112906504        3.1488990390       -5.8621919874
 O       -10.0974348598        4.1648428037       -6.2694793553
 C       -10.4038575543        1.9944502163       -5.3909877481
 C       -11.8955958472        2.5141182557       -5.3242634481
 C       -12.2546328393        2.7656213326       -3.8480004586
 O       -11.3842593277        2.5176420385       -3.0356860303
 C       -13.6658864509        3.3470603142       -3.4611023904
 C       -13.6464590250        3.5034655306       -1.8931776527
 O       -13.1996523621        4.4674093217       -1.3404459761
 C       -13.7522264489        2.1941161599       -1.1278248085
 C       -14.0394350268        2.4998659185        0.3988454447
 C       -13.7793557550        1.2980034258        1.2418658122
 O       -13.7155006060        0.1953208681        0.7219437839
 C       -13.8462153178        1.4066641905        2.7781406000
 C       -12.1805833678        1.5265737554        3.0649691763
 O       -11.7126507469        2.6430081523        3.1695372322
 C       -11.4015536431        0.2079835072        3.1968356845
 C        -9.9785172400        0.3805698295        3.8145475871
 C        -8.8631112162        1.0310682559        2.9842935454
 O        -9.2192204583        1.7558424762        2.0750245413
 C        -7.4548952812        0.9033520570        3.4704711906
 C        -7.1654360960        2.0334347856        4.6829398998
 O        -7.6484456278        3.1197717262        4.6834123119
 C        -6.0579199471        1.6900529135        5.7188227485
 C        -7.1037462672       -0.5216306227        3.9681171777
 C        -6.4436966692        1.4557817931        2.2937403246
 C       -14.5588842073        2.7189333522        3.2906173313
 C       -14.3670051452        0.1314618905        3.4368446968
 C       -13.7230434878        4.7363022721       -4.0643385008
 C       -14.8647426048        2.5575581878       -4.1248836381
 C        -7.5970559069        3.4532822600       -7.5265400377
 C        -7.5265730002        1.4347939060       -5.9240708513
 C        -6.5154105683        6.5709077321       -0.6031566524
 C        -5.4943255296        4.8188482911        0.8525897054
 C       -12.7839058356        6.9362578028        1.9336705649
 C       -11.2017124064        8.8187158344        2.1813968225
 H       -10.3943997325        8.4378635550        4.7486117873
 H       -10.9639360219        7.1692066269        5.6942872422
 H       -12.1292295210        8.1606465983        4.7650329030
 H       -11.4786354598        5.5372383453       -0.2350548691
 H       -10.9708946772        4.7645367324        1.1704560261
 H        -9.2027715821        5.7552629609       -1.2304680622
 H        -9.3854867317        4.0296045873       -0.8741032991
 H        -5.7796495760        4.9505520861       -3.0671775203
 H        -7.4936683660        5.3148545058       -2.6950245963
 H        -8.4041068988        3.2984133324       -3.3724376186
 H        -6.8710412188        2.3944796640       -3.3632556351
 H       -10.1027249576        1.4577352534       -4.4947345747
 H       -10.4449136775        1.3118825283       -6.2255281483
 H       -12.5358487247        1.7231616353       -5.6522210712
 H       -12.0882929239        3.3290469079       -5.9687941157
 H       -12.7112260329        1.8264405280       -1.3342661036
 H       -14.5019608297        1.5828696298       -1.6533133860
 H       -15.0384514261        2.8564319724        0.6269381617
 H       -13.1779218666        3.2103460270        0.6771580606
 H       -11.3362199498       -0.3468415811        2.2656049289
 H       -11.9019100865       -0.5065648870        3.8332146326
 H        -9.6947674430       -0.6213910611        4.1777249712
 H       -10.0843910022        1.0372449787        4.6933619788
 H        -6.2401366365        1.0645908383        6.6270923107
 H        -5.5660971935        2.5614260042        6.0801852527
 H        -5.3218466969        1.1855123731        5.0508521300
 H        -7.1495652801       -1.2526982096        3.1518325997
 H        -7.7480836927       -0.9954713081        4.7347219181
 H        -6.0296526378       -0.5785898738        4.1808896931
 H        -6.2827872847        0.7405022886        1.5334499721
 H        -5.4759186082        1.6949748403        2.7290988529
 H        -7.0259819360        2.3216625399        1.9791811799
 H       -14.2748927705        3.6423005065        2.6781534093
 H       -14.3310852289        3.0163952083        4.2923792025
 H       -15.6023639191        2.6313537175        3.1817056576
 H       -13.9623129594        0.0608683884        4.4440729630
 H       -14.1718397770       -0.8259713901        2.8955824497
 H       -15.4805280002        0.2608675897        3.4287168163
 H       -14.7111677917        5.2125981359       -3.8652468815
 H       -13.4219691202        4.7742826736       -5.1198748727
 H       -13.0357274648        5.5032090229       -3.5514667455
 H       -14.5600744589        1.5203420150       -4.3221631435
 H       -15.0372007477        3.0114321265       -5.0647644800
 H       -15.8061503459        2.4464597894       -3.5210432050
 H        -6.5431085082        3.0671349214       -7.6969423452
 H        -7.6079586745        4.5991486307       -7.5238705258
 H        -8.1948091956        3.0209038400       -8.3386892662
 H        -7.8693165539        1.0908288515       -4.9243300274
 H        -6.4061578834        1.3829845678       -5.9622719261
 H        -7.9523585297        0.8334564334       -6.7302382811
 H        -6.4557123674        7.2627244068        0.2567687186
 H        -7.1700615332        6.8983105478       -1.4140153747
 H        -5.5220928575        6.5987183698       -1.0730798903
 H        -4.5740514023        4.5020172393        0.2626273484
 H        -5.8100134876        3.9650926548        1.4350276391
 H        -5.3511289922        5.6396577552        1.6212623090
 H       -12.8150779110        5.8840173579        1.7411790032
 H       -13.3175103039        7.3878704190        1.1286649265
 H       -13.4852185418        7.0564260557        2.8261457407
 H       -10.3259371059        9.2303244653        2.6209208099
 H       -12.0753494619        9.1871882332        2.7894104822
 H       -11.3862773400        9.1517090345        1.1929197838
 Na       -9.5645240746        3.7231579588        3.2292647411
