117

 C       -12.2622055825        7.8189517140        4.4257732227
 C       -11.3254068294        6.9023193746        3.6314039113
 O       -10.5835246494        6.0512623121        4.1252704653
 C       -11.4912043762        7.0375506503        1.9938309981
 C       -10.3408531907        6.3271988452        1.2822439998
 O        -9.2944828023        6.9522296644        1.2097034069
 C       -10.5585095206        4.9531963310        0.5363011024
 C        -9.4277960453        4.6740512545       -0.5214879851
 C        -8.0687732821        4.8313075303        0.1574706810
 O        -7.9800939305        4.4725800879        1.3571401174
 C        -6.8279517337        5.2869901386       -0.6766450363
 C        -6.6826611927        4.1808406174       -1.8423165467
 O        -6.3032424918        3.0693219895       -1.5587121804
 C        -6.9879010214        4.5331229073       -3.3488164944
 C        -7.3548071683        3.2533233160       -4.0390688103
 C        -7.5006755495        3.4853049101       -5.5452308483
 O        -6.8551523282        4.3713344388       -6.1048588273
 C        -8.3630363009        2.4144509405       -6.3133203735
 C        -9.8925515811        2.6058499776       -5.9502253071
 O       -10.2907939315        3.7546299931       -5.8721195436
 C       -10.8308681062        1.4293053542       -5.9603744945
 C       -12.1638125058        1.9546927826       -5.4349232914
 C       -12.1667584507        2.3424933545       -4.0078126304
 O       -11.3674022981        1.9166891957       -3.2397829134
 C       -13.4857203600        2.9977257118       -3.3937444608
 C       -13.2991434149        3.2466221609       -1.9212829750
 O       -13.1769364668        4.3789948829       -1.4811114527
 C       -13.1251321345        1.9635365086       -1.0013468526
 C       -13.2935058331        2.3777674087        0.3782572408
 C       -13.5434162486        1.3079127284        1.3884760469
 O       -14.1047322556        0.2256628355        1.1282997266
 C       -13.3747767619        1.6598341622        2.9714860488
 C       -11.8001313510        1.7668696812        3.2965358697
 O       -11.3068209498        2.9129761515        3.2082278057
 C       -10.9748888570        0.4450552567        3.4925882150
 C        -9.6587569175        0.7880112203        4.3131896682
 C        -8.4830737190        1.3036080834        3.4787733776
 O        -8.6718358462        1.6514927718        2.3169700303
 C        -7.1733728036        1.6120665885        4.3100334220
 C        -7.3556441861        2.8548039009        5.2280514696
 O        -8.3377140224        3.5764043286        5.1442085693
 C        -6.2249383959        3.2812544096        6.1493679331
 C        -6.7988908941        0.3369642724        5.1452471543
 C        -6.1395036843        1.9682316917        3.2402229510
 C       -14.0277190356        3.0981631822        3.1993609455
 C       -14.0018763982        0.5204366591        3.8212216650
 C       -13.6253329058        4.3549390293       -4.1181681072
 C       -14.7673904606        2.1561863504       -3.5316313426
 C        -8.2616697226        2.8793684437       -7.8045630769
 C        -7.8603409001        1.0009022860       -6.1121939080
 C        -7.0488793243        6.7161118054       -1.2161729806
 C        -5.5387620575        5.0763829662        0.2418774125
 C       -12.8904805018        6.6265218600        1.5259551413
 C       -11.3912761540        8.6305820056        1.6337588980
 H       -11.6815764593        8.7482117262        4.5983700659
 H       -12.5692196754        7.3116242766        5.4230814106
 H       -13.1647284906        8.1308675765        3.9431460592
 H       -11.4000594599        5.0636114776       -0.1598038803
 H       -10.8020063878        4.2349481044        1.2880640633
 H        -9.4729071876        5.4854084731       -1.2105994049
 H        -9.5396573506        3.7205507560       -1.0356454881
 H        -6.0801771571        4.9537139835       -3.7620547663
 H        -7.7896335226        5.2362208074       -3.5458258747
 H        -8.2851501917        2.7994826601       -3.5625648093
 H        -6.6083527537        2.4895600936       -3.9191021827
 H       -10.3333194865        0.6522355093       -5.3281741779
 H       -11.0067159306        1.0936550763       -7.0178981396
 H       -12.9211742992        1.1298682000       -5.5051140420
 H       -12.5183690219        2.7481949370       -6.1423232566
 H       -12.2248672573        1.4162445459       -1.2008609527
 H       -13.9455578383        1.3354450017       -1.2882255463
 H       -14.1266865416        3.0080695072        0.5580944766
 H       -12.5026638817        3.0084918812        0.7962728007
 H       -10.6832655997        0.1854999123        2.4536726111
 H       -11.4049799384       -0.3952616511        4.0356439145
 H        -9.3455465405       -0.0393728733        4.9380236345
 H        -9.9176375260        1.5283613712        5.0999311349
 H        -5.7964500940        2.5261669403        6.7078336553
 H        -6.3660796690        4.2147693098        6.6901793253
 H        -5.4645030467        3.5872037726        5.4322906902
 H        -7.2853935046       -0.5964172762        4.7160219681
 H        -7.1325725120        0.3706930126        6.1818493947
 H        -5.6964097802        0.0526239514        5.2122460183
 H        -5.8776240590        1.0978209387        2.6194630401
 H        -5.3025282270        2.3563315858        3.8554333632
 H        -6.4930516281        2.7128253407        2.5553904766
 H       -13.6619874368        3.9161842564        2.6037406690
 H       -13.8397793255        3.4643843256        4.2281757572
 H       -15.1253579450        2.9988685917        2.9956535868
 H       -14.0717439737        0.7128446243        4.8782930009
 H       -13.4489391473       -0.4032712903        3.6760860685
 H       -15.0192089321        0.3029987796        3.4780099261
 H       -14.5366283304        4.8405570070       -3.8097432840
 H       -13.7192142628        4.1128649187       -5.2075342243
 H       -12.8296661256        5.0227951961       -3.8655796450
 H       -14.8511142221        1.2555595184       -2.8643865157
 H       -14.8997729846        1.8366887102       -4.5717512333
 H       -15.5396581112        2.8672390819       -3.2650539398
 H        -7.2479045471        3.0706096427       -8.1510141298
 H        -8.7890489778        3.7920184877       -7.8258461420
 H        -8.6497520566        2.0449610852       -8.3856025143
 H        -7.9018059554        0.7192385598       -5.0943799487
 H        -6.7430005556        1.0727867152       -6.2016510820
 H        -8.2378269327        0.3158254799       -6.8636018800
 H        -7.2881306670        7.4145613683       -0.4074165067
 H        -7.8380472175        6.7809679115       -2.0269255924
 H        -6.1901280685        7.1293877903       -1.6912219501
 H        -4.8024321340        5.7517464749       -0.1881633813
 H        -5.0149808479        4.0764193428        0.2297593429
 H        -5.7624262680        5.4292124474        1.2501346846
 H       -13.1356230691        5.5611370609        1.6151317584
 H       -12.9539827545        6.8196565407        0.4614548058
 H       -13.6094189044        7.1729819988        1.9784510656
 H       -10.4354747401        8.8969965509        2.0553705171
 H       -12.1818796504        9.1871399846        1.9965892799
 H       -11.4037245690        8.7142977367        0.5382335853
 Na       -9.2400391862        4.0718838427        3.0615565115
