117

 C       -11.9006848537        7.8766760567        4.6806977158
 C       -11.2674322883        6.8863879367        3.6155122511
 O       -10.7134528203        5.8555058995        3.8569578863
 C       -11.4840665628        7.3133345902        2.1000543153
 C       -10.2643860333        6.8186786096        1.2779434454
 O        -9.1998893662        7.4107241450        1.4002297157
 C       -10.3920730577        5.4696579990        0.4747535591
 C        -9.2269965034        4.7488365489       -0.2111220277
 C        -7.8950467099        4.9235228307        0.5903523999
 O        -7.7368291289        4.7358226238        1.7588584076
 C        -6.6375030699        5.1156352058       -0.4219977583
 C        -6.7612514252        4.0544862462       -1.5681572632
 O        -6.5779101464        2.8595874397       -1.3203295642
 C        -7.0519875063        4.4241081975       -2.9840332963
 C        -7.5071216732        3.2697381577       -3.8292405948
 C        -7.2849086518        3.5397170084       -5.3207122826
 O        -6.7565795570        4.6026089508       -5.6278964527
 C        -8.1130526573        2.6158841259       -6.2787473286
 C        -9.7111416536        2.9073448831       -6.1251076420
 O       -10.1341094446        4.0454968334       -6.0825163655
 C       -10.7168826808        1.7300169415       -6.0945029317
 C       -12.0437720580        2.2511013959       -5.5574712690
 C       -12.1036571777        2.4232511228       -4.0098961042
 O       -11.1113586277        2.3497161811       -3.3599189171
 C       -13.5460837950        3.1291871400       -3.4917552655
 C       -13.5535028603        3.3179689729       -1.8788102873
 O       -13.4797779189        4.4116498204       -1.3836157285
 C       -13.6871739262        2.0874349005       -1.0072432558
 C       -13.5198175740        2.4775116767        0.5273514014
 C       -13.7799286848        1.3145864448        1.4885484824
 O       -13.8501017530        0.1317853887        1.1133976467
 C       -13.5185304060        1.6244781203        3.0375247077
 C       -12.0229713136        1.7435152641        3.1301076206
 O       -11.5207253948        2.8401272228        2.9836721026
 C       -11.1739631441        0.5222450447        3.2306107307
 C        -9.8610340021        0.5876232842        4.0847136118
 C        -8.6630069567        0.8968836719        3.1480481536
 O        -8.7490709191        1.0140123699        1.9310413117
 C        -7.2743535886        1.1406567101        3.9036352446
 C        -7.3852636918        2.4691261285        4.8352810768
 O        -8.2994793537        3.2905260012        4.8393319245
 C        -6.1763751053        2.8065476895        5.7237895622
 C        -6.9319814460       -0.1294853238        4.6182006674
 C        -6.1326001220        1.5636484353        2.8573264948
 C       -14.1196356069        2.9098217087        3.5750646897
 C       -14.1976622242        0.4198018408        3.8970364608
 C       -13.6252596714        4.5962425006       -4.1007701629
 C       -14.7209338218        2.1953312679       -3.8500886552
 C        -7.7378498812        3.0362062928       -7.7049274044
 C        -7.6987646166        1.1904435752       -5.9465134889
 C        -6.8496943567        6.6051618413       -0.8795192936
 C        -5.3210099633        4.9822530248        0.3772290137
 C       -12.7468638921        6.5908876187        1.6066343824
 C       -11.6174593216        8.8759360632        1.9341688699
 H       -11.4121732375        8.7436158714        4.8131743566
 H       -11.8005396794        7.4194545959        5.6831070290
 H       -12.8823510577        8.1518357946        4.2984306257
 H       -11.1209292157        5.7064079808       -0.2932209875
 H       -10.9098867783        4.7404805845        1.1064733951
 H        -9.0793200080        5.0759692738       -1.2306343819
 H        -9.3390936002        3.6872508516       -0.2449068344
 H        -6.1161595323        4.8505740424       -3.3392568857
 H        -7.6829413614        5.3048016481       -3.0977401849
 H        -8.5546494107        3.1400612815       -3.6647225145
 H        -7.0504551214        2.3250466330       -3.5660232499
 H       -10.3982452388        0.9507016427       -5.3672839755
 H       -10.7809786645        1.4132338580       -7.1629284163
 H       -12.8896018675        1.7223669685       -5.9363396277
 H       -12.1419412150        3.2780635828       -5.8683453715
 H       -12.8266403332        1.4924756568       -1.2068700609
 H       -14.5914061501        1.5627508435       -1.2628903939
 H       -14.3325077680        3.2070941618        0.7791106656
 H       -12.5542558597        2.8332833766        0.8086786783
 H       -10.8089603367        0.3610295815        2.2423822656
 H       -11.7276683835       -0.3213587609        3.5877580425
 H        -9.6904123858       -0.3768692479        4.6042681964
 H        -9.9971332380        1.4031039351        4.8117771888
 H        -6.0390357814        1.8674638819        6.3332832554
 H        -6.3490830023        3.6060399410        6.4115470261
 H        -5.2429275222        2.9058779350        5.2379483124
 H        -6.9118992753       -1.0551092106        4.0236079578
 H        -7.6782933509       -0.3232373063        5.4640309415
 H        -6.0160145476       -0.1078703604        5.2293442596
 H        -6.1684509341        0.8111759125        2.0660145092
 H        -5.1883489106        1.7785808873        3.2926104675
 H        -6.5459262799        2.4870543431        2.4291976895
 H       -14.0196740850        3.6969684599        2.8693689223
 H       -13.7722640215        3.2333809440        4.5605612386
 H       -15.2181073677        2.8175398181        3.7020648098
 H       -13.9323630310        0.3650906740        5.0216423355
 H       -14.0194548442       -0.5385122145        3.4198820258
 H       -15.2473520230        0.5659567680        3.9012283277
 H       -14.6028294661        5.1459669537       -3.9549658658
 H       -13.5366889624        4.6372636688       -5.2326927981
 H       -12.7459651664        5.0974736439       -3.7656489355
 H       -14.8237422177        1.4608931569       -3.0770350282
 H       -14.5007991514        1.6239323711       -4.7922056960
 H       -15.6222317566        2.7729383660       -4.0147891661
 H        -6.6841769270        2.9659781555       -7.6582392351
 H        -8.0802300647        4.0438866783       -7.8893468141
 H        -8.2618743600        2.4232418063       -8.5316027597
 H        -8.1711220682        0.9741467105       -4.9489388802
 H        -6.6667154337        1.1812773058       -5.9615394980
 H        -8.1143862897        0.3910862789       -6.6123094716
 H        -7.0000451917        7.2811465367       -0.0404641665
 H        -7.8027189935        6.7191199621       -1.3476982340
 H        -6.0193171260        7.0177746533       -1.5198597081
 H        -4.4290870312        5.2648434659       -0.2005838347
 H        -5.2858865990        3.8749164701        0.6014200453
 H        -5.2781794212        5.6193377852        1.2839959116
 H       -12.7770781416        5.5441987316        1.8168999422
 H       -13.0460405463        6.7595694619        0.5827650472
 H       -13.5932493521        6.9156071902        2.2038776203
 H       -10.7313246443        9.3456148539        2.3363509407
 H       -12.4877320452        9.0937727075        2.5271040638
 H       -11.7477048463        9.1954729486        0.9301002682
 Na       -9.4454812686        3.7949496153        2.8676985803
