117

 C       -12.1857374912        7.7203600980        4.4394169411
 C       -11.3235120065        6.8493549395        3.4634318395
 O       -10.5924159776        6.0761707560        3.9635815082
 C       -11.5220513968        7.1040151711        1.9310905966
 C       -10.3562878995        6.4762309452        1.1721025089
 O        -9.1928018451        6.8627597626        1.2324331085
 C       -10.6006629125        5.1315232337        0.3752399943
 C        -9.4999692553        4.6411215568       -0.5409648051
 C        -8.0896065725        4.6960173235        0.1724552779
 O        -7.8611834950        4.3073261830        1.2757240591
 C        -6.9260671829        5.2275506139       -0.7390053374
 C        -6.6939227708        4.2068415287       -1.8715146397
 O        -6.2187323751        3.1037865524       -1.5633929752
 C        -6.9917601659        4.4970874573       -3.3218017182
 C        -7.4240609960        3.2426861056       -4.0605122793
 C        -7.4603741867        3.4488176252       -5.5633085647
 O        -6.9275307867        4.3262649698       -6.1842114311
 C        -8.3406040903        2.4128709202       -6.3692684838
 C        -9.8445495224        2.6027144371       -5.9124317385
 O       -10.2426536557        3.7522928469       -5.7495331639
 C       -10.8212390589        1.4033029700       -5.9818552023
 C       -12.2842856677        1.7123595404       -5.4846152258
 C       -12.3119363570        2.0745982781       -3.9799569016
 O       -11.3542316868        1.9019723900       -3.2556759726
 C       -13.5299150061        2.9753173028       -3.4481415302
 C       -13.1886182878        3.2555020604       -1.9179591176
 O       -13.0495498846        4.3517591670       -1.4381377977
 C       -13.1481720312        2.0519724328       -0.9317654032
 C       -13.1979509994        2.4715740138        0.4587801205
 C       -13.5093709323        1.3116604255        1.4759069958
 O       -13.9208179997        0.2833048897        1.0962427767
 C       -13.3368652284        1.6464714400        3.0254843478
 C       -11.7870915090        1.7290693304        3.2494921798
 O       -11.2567885695        2.8040766496        3.1776423428
 C       -11.0182961872        0.5505155688        3.5462519696
 C        -9.7393330082        0.8387062537        4.3765482273
 C        -8.5837690917        1.5274320400        3.5808585850
 O        -8.6424047988        1.8482271413        2.4050202603
 C        -7.2054186474        1.7368524326        4.3808301117
 C        -7.2988983254        2.9815899971        5.2562496779
 O        -8.2453095297        3.7367711807        5.1679862584
 C        -6.1582584024        3.2610793193        6.2544870835
 C        -6.7443714267        0.4844710768        5.1135583217
 C        -6.0011400060        2.0045877296        3.3630660924
 C       -14.0620742853        2.9217321319        3.3538839972
 C       -14.0860450976        0.6006165401        3.8151937359
 C       -13.6338221873        4.4419979514       -4.1089431498
 C       -14.8597161891        2.1189127900       -3.5724304471
 C        -8.3648121574        2.8653198075       -7.9001107280
 C        -7.7685275047        1.0156796124       -6.1598618395
 C        -7.1578279980        6.6292241840       -1.2573862316
 C        -5.6456288805        5.1578472314        0.1731788558
 C       -12.9395820464        6.5310707978        1.5119275306
 C       -11.4505506033        8.6102134684        1.6570767730
 H       -11.5494912497        8.5232707620        4.7136254608
 H       -12.6278438573        7.1628765202        5.3227762748
 H       -13.1069897834        8.2579602285        3.9882062518
 H       -11.5030492215        4.9873713359       -0.2517431564
 H       -10.6205879117        4.4437269393        1.2280901300
 H        -9.4774661722        5.0759678296       -1.5490759689
 H        -9.7204520720        3.5586420983       -0.5806247172
 H        -6.0632964735        4.8845847374       -3.7692473016
 H        -7.8073856408        5.2242971225       -3.4526331838
 H        -8.4670953935        2.8379926719       -3.7487775718
 H        -6.7718857542        2.4008608771       -3.8616690308
 H       -10.3945140221        0.6280937636       -5.3622750484
 H       -10.7901710442        1.0750917456       -7.0465665167
 H       -12.8850697155        0.7817262489       -5.7456523565
 H       -12.7703934686        2.5791370849       -6.0438009294
 H       -12.1755503159        1.6034670352       -1.1702731944
 H       -13.9181538348        1.3204056242       -1.2221190234
 H       -13.9387632171        3.2627361435        0.7224747556
 H       -12.3504626794        2.9845020565        0.7713691244
 H       -10.6509307384        0.1968795457        2.5390860831
 H       -11.4994409749       -0.2745857461        4.1065430728
 H        -9.3794407711       -0.0899351721        4.7687154571
 H        -9.9920369182        1.3588510661        5.3328327583
 H        -5.9974227822        2.2547239526        6.7460579197
 H        -6.4359739748        3.9967473694        6.9599848750
 H        -5.2254384035        3.6223714173        5.9201966002
 H        -6.8330410410       -0.4746842837        4.6118967037
 H        -7.2742795204        0.3791211240        6.1050066996
 H        -5.6973390210        0.5540115560        5.3524425997
 H        -5.7895726315        1.0882647974        2.7233749228
 H        -5.1326791639        2.3090573490        3.9592247965
 H        -6.3246051210        2.7783625384        2.6422208055
 H       -14.0567460766        3.6870141454        2.6197775363
 H       -13.6372830088        3.4511471386        4.2339623526
 H       -15.1445976709        2.6330821663        3.4829786597
 H       -13.9606071882        0.6755890942        4.9274472906
 H       -13.8033948634       -0.3734859730        3.5358960104
 H       -15.0834221628        0.6887037344        3.5799426552
 H       -14.5791288882        4.8718787650       -3.7459958410
 H       -13.5491381816        4.4162658931       -5.2049806775
 H       -12.9410156249        5.0615386731       -3.6638986355
 H       -14.9332370549        1.3113124647       -2.8477796470
 H       -14.7141328372        1.6820663168       -4.6031679230
 H       -15.7489823576        2.7102191252       -3.5183255192
 H        -7.3957609328        3.0187759459       -8.2210458493
 H        -8.8493385445        3.7864330563       -7.9463959158
 H        -8.7320403601        1.9774085637       -8.4791459138
 H        -7.8603356316        0.8077631555       -5.0814527993
 H        -6.7561431344        0.9639846402       -6.2675457173
 H        -8.2429844308        0.2699104278       -6.8568617566
 H        -7.5406036385        7.3218486290       -0.5406070973
 H        -7.7057002590        6.6647745962       -2.1732879450
 H        -6.2011184106        7.0703952278       -1.5704528025
 H        -4.9207567320        5.8085216055       -0.2559966051
 H        -5.1543381919        4.1575706664        0.1864274757
 H        -5.8845715083        5.4408071728        1.1710384364
 H       -12.9868684828        5.4747733260        1.6296398018
 H       -13.1259297906        6.6828261996        0.4611906666
 H       -13.7137606795        7.0350097001        2.0876754070
 H       -10.6125069451        8.9440606445        2.2607998423
 H       -12.3661238325        9.1245155754        1.8863550678
 H       -11.2906290988        8.6990756453        0.5919812971
 Na       -9.3558344509        4.0444982447        3.1143113047
