117

 C       -12.0189284603        7.5614403114        4.4181431034
 C       -11.2938690715        6.8428631407        3.3164617945
 O       -10.5792817890        5.8766551900        3.6608514595
 C       -11.5391282861        7.1692216075        1.8638783756
 C       -10.3533791743        6.4696574294        1.0104341740
 O        -9.2328386547        6.8397277758        1.2369511942
 C       -10.6177711665        5.2834194684        0.1723377887
 C        -9.4538112852        4.5481178753       -0.6145667979
 C        -8.1154060492        4.6334253596        0.1175387923
 O        -7.9446516079        4.1594720821        1.2765081232
 C        -6.9250925125        5.1568170741       -0.6995910405
 C        -6.6479581215        4.0973205902       -1.9089446715
 O        -6.1030014558        3.0761712222       -1.6433937053
 C        -7.0585204664        4.4123943486       -3.3781855008
 C        -7.5293350123        3.1457505322       -4.1229822030
 C        -7.6043842852        3.4945214225       -5.6939997280
 O        -6.8939044095        4.3417989446       -6.2292840968
 C        -8.4836423421        2.4715429480       -6.5233441509
 C        -9.9079289327        2.5378613141       -5.9294755336
 O       -10.3139802614        3.5458107467       -5.4162061913
 C       -10.8624208538        1.3182332765       -5.9245032506
 C       -12.2444016632        1.6220522662       -5.4581689407
 C       -12.2472130526        2.0777173146       -3.9968507324
 O       -11.3504560928        1.7531328006       -3.2552959960
 C       -13.4596575312        2.8957038363       -3.4914766062
 C       -13.1599548892        3.1890996411       -1.9270472919
 O       -12.9678375037        4.3484224611       -1.5953406779
 C       -13.1631326135        2.0131736181       -0.8907213159
 C       -13.1730429417        2.5412453423        0.5746026267
 C       -13.4384481382        1.4062700751        1.5610979761
 O       -13.6089435928        0.2486243412        1.1335739575
 C       -13.3613398081        1.6198876305        3.1769195607
 C       -11.9365992149        1.7698959812        3.4025991275
 O       -11.4856225949        2.8924753941        3.0814079789
 C       -10.9593361990        0.6249590369        3.6864299130
 C        -9.6507880678        0.8897839967        4.5289026186
 C        -8.4993782322        1.5442011179        3.6899273279
 O        -8.7353386858        2.0006554762        2.5918613870
 C        -7.1463650929        1.8482105959        4.4516114524
 C        -7.1629492143        3.1606529167        5.3683966768
 O        -7.9658302173        4.0340689182        5.0902010036
 C        -6.2790379344        3.2720066834        6.6247576517
 C        -6.6884627997        0.5800488162        5.2863076773
 C        -6.1389601629        2.1805880652        3.3758579803
 C       -14.0370153452        2.9394296880        3.6840497349
 C       -13.9759291764        0.3281846653        3.8463292028
 C       -13.5571964221        4.2849328890       -4.2249200340
 C       -14.8568018169        2.1644007879       -3.7218178240
 C        -8.4109324480        2.6698953957       -8.0723792480
 C        -7.9489381961        1.0535062351       -6.3208310427
 C        -7.3837843355        6.6185836994       -1.2471601862
 C        -5.6219263002        5.4164442780        0.1403124264
 C       -12.8815880145        6.5525639515        1.5055556769
 C       -11.6034608350        8.7263074005        1.5563809287
 H       -11.4034812724        8.3273691856        4.9424955569
 H       -12.5026999923        6.8359017552        5.0444564911
 H       -12.8511703002        8.0198629654        4.0513018173
 H       -11.4266757176        5.5362823923       -0.5169403505
 H       -11.0115315950        4.5809515323        0.9500204047
 H        -9.2455909930        4.9440781049       -1.6151786334
 H        -9.7019761796        3.4820919112       -0.6873761041
 H        -6.2131810787        4.8077611086       -3.9766786871
 H        -7.9185529209        5.0999728766       -3.3592130081
 H        -8.4825858400        2.7969245329       -3.8533401734
 H        -6.8027271680        2.3319184620       -3.9075875105
 H       -10.5023662745        0.4857845516       -5.2719125015
 H       -10.7751562971        0.9421016598       -6.9446141526
 H       -12.7400750051        0.6941772810       -5.5603201757
 H       -12.7573123927        2.3427763988       -6.0335451261
 H       -12.2832100443        1.4404720947       -1.2276009699
 H       -14.0336206180        1.4032275483       -1.1409262059
 H       -13.7141556097        3.4102906532        0.8809282701
 H       -12.1392781257        2.9116402166        0.9397031020
 H       -10.4731046119        0.3517065704        2.7796247770
 H       -11.4015035960       -0.2546665149        4.1018624575
 H        -9.2721775340       -0.1215789581        4.8369020385
 H        -9.7502595918        1.3768741413        5.4907099118
 H        -6.2056434882        2.4136337360        7.2269173702
 H        -6.5237280287        4.2235457436        7.1839427759
 H        -5.2434074364        3.5617013475        6.2651218633
 H        -6.4771213724       -0.2735429714        4.6533185612
 H        -7.4713722382        0.3046500992        5.9102649147
 H        -5.7477239783        0.6761479697        5.8360665063
 H        -6.0245268796        1.4120997928        2.6224485034
 H        -5.1309387740        2.2719237640        3.8489908494
 H        -6.5225187920        3.0756429010        2.8964708749
 H       -13.6209238223        3.7752710868        3.0982381841
 H       -13.6934219279        3.1506846961        4.6705869925
 H       -15.0919417636        2.9313899693        3.6055873882
 H       -13.5885639700        0.2606376714        4.8216438726
 H       -13.7056567760       -0.6464271173        3.3751314431
 H       -15.1110524428        0.3898436085        3.8672010122
 H       -14.3017279377        4.9390797670       -3.7886381660
 H       -13.6192359726        3.9822450739       -5.2674133177
 H       -12.5881104263        4.8568693859       -4.1398916227
 H       -14.8665780753        1.1713954146       -3.2504925123
 H       -15.0492150288        2.1378129037       -4.7503113124
 H       -15.6405855247        2.6952446847       -3.1584345222
 H        -7.3604147733        2.3902553993       -8.4092274475
 H        -8.5735220518        3.7446276610       -8.2646998099
 H        -9.0553222843        1.9676001206       -8.5278688039
 H        -7.9058498065        0.6984555025       -5.3002943531
 H        -6.8881386266        0.9025402647       -6.7708364055
 H        -8.5995289871        0.4486713930       -6.9098864246
 H        -7.3521873248        7.3345301946       -0.4305150820
 H        -8.3625184038        6.6222684787       -1.7479003843
 H        -6.7815585940        7.0442455049       -2.0036521687
 H        -4.7811423190        5.5624125342       -0.5300069387
 H        -5.4567297798        4.5611921095        0.7768707665
 H        -5.7438443767        6.2218881784        0.8527804449
 H       -12.9637188417        5.4333833520        1.7149945293
 H       -13.0483933861        6.6295951327        0.3949214299
 H       -13.6555454397        7.1380208380        2.0017660990
 H       -10.7083209232        9.1819914650        1.9934143676
 H       -12.4889690996        9.1064800795        2.0803816013
 H       -11.7740755228        8.8536727792        0.4695032536
 Na       -9.4006215481        4.2481544238        3.1331153289
