117

 C       -11.3747069549        7.8971586921        3.9995224294
 C       -11.0713581944        7.0254856058        2.7659030604
 O       -10.3680593353        6.0734279649        2.9014733338
 C       -11.6271184129        7.3834953258        1.3892516624
 C       -10.5025896124        6.7850381180        0.5073526170
 O        -9.5458556182        7.4473217812        0.1723806734
 C       -10.6719034463        5.3028564821        0.0000351017
 C        -9.4122565270        4.7477440914       -0.7370971632
 C        -8.0306037825        4.9934466844       -0.0903874435
 O        -7.8859341482        4.9786955508        1.1480474797
 C        -6.9482048329        5.3134711972       -1.0997507249
 C        -6.8285289284        4.0869459844       -2.1081137375
 O        -6.3118668679        3.0523069054       -1.7602915055
 C        -7.1599662689        4.3105954835       -3.5822326717
 C        -7.1564443263        3.0231357406       -4.4655781891
 C        -7.7445715290        3.2141163027       -5.8993478298
 O        -7.4081015423        4.1809861411       -6.5315135691
 C        -8.7969374568        2.2095216459       -6.4519424974
 C        -9.9975731597        2.1555029698       -5.4901826666
 O       -10.2657069578        3.0521914972       -4.6723695013
 C       -10.9334837292        0.9304825295       -5.6209032756
 C       -12.2962979666        1.2674945100       -5.1406392060
 C       -12.2905321222        1.5028262950       -3.6080405575
 O       -11.5655803226        0.9743179060       -2.8287161627
 C       -13.3627071193        2.5865501359       -3.1233662747
 C       -13.3262541176        2.6921993697       -1.5898576587
 O       -13.2911956193        3.8010105750       -1.0783250669
 C       -13.4319041026        1.4216882961       -0.7202440498
 C       -13.8507063131        1.8169078017        0.7099471922
 C       -13.0345383888        0.9798657865        1.7340066085
 O       -12.4289099345        0.0264938072        1.3794990392
 C       -13.0832851229        1.4597624321        3.1837501643
 C       -11.6559653707        1.8597875043        3.5871647617
 O       -11.2450182332        2.9566975110        3.3430968845
 C       -10.7639085233        0.8009042655        4.2217792422
 C        -9.6178802562        1.3584950715        5.0832485372
 C        -8.3876142839        1.6785126875        4.1863877133
 O        -8.5566107917        1.7204911803        3.0050074681
 C        -7.0757448033        2.3519799235        4.8471794399
 C        -7.5066002688        3.7456775441        5.5434763565
 O        -8.2064316197        4.4884744567        4.9166750577
 C        -6.8019052033        4.1789082764        6.8332436214
 C        -6.5540720697        1.3649628913        5.8939714804
 C        -6.0295995666        2.6651279023        3.7931706414
 C       -14.0143774848        2.7333591601        3.3882700120
 C       -13.7402279508        0.1952924453        3.8307782274
 C       -13.1948277850        3.9311951721       -3.8520108039
 C       -14.7510726917        2.0050432166       -3.5820299338
 C        -9.1532426176        2.7673718933       -7.8577831111
 C        -8.1205699156        0.8762825826       -6.5476626159
 C        -7.2994102806        6.6383420060       -1.8965479115
 C        -5.5467671700        5.5350214728       -0.4726021459
 C       -13.0068139684        6.6787928623        1.2392347599
 C       -11.6659832070        8.9118689971        1.0666409682
 H       -10.5880121448        8.5157658640        4.3762370570
 H       -11.5357923393        7.2058779582        4.8972161716
 H       -12.2159406177        8.5120232066        3.7097878748
 H       -11.5073228075        5.2940502503       -0.6562969963
 H       -11.0686760569        4.6222648933        0.7765499449
 H        -9.3524944361        5.1387337054       -1.7437022112
 H        -9.5063232510        3.6883583796       -0.8389301300
 H        -6.3435525384        4.9696691543       -3.8757018775
 H        -8.0204571122        4.9287774497       -3.7042826172
 H        -7.6203588683        2.2430249048       -3.9306108888
 H        -6.0859309798        2.6727393389       -4.6352913355
 H       -10.4613933165        0.1241435050       -5.0013351319
 H       -10.8156367649        0.6188949505       -6.6588855968
 H       -12.9572041271        0.4209979194       -5.3172047564
 H       -12.6866487267        2.0923866171       -5.7000443978
 H       -12.4688906798        0.8825975537       -0.7515082682
 H       -14.2269821596        0.8351787605       -1.1278716976
 H       -14.8967897306        1.6495224689        0.6391462032
 H       -13.5271291274        2.8475054774        0.8492562006
 H       -10.4788863053        0.1302885125        3.4052977804
 H       -11.3511789715        0.0956628448        4.8313448169
 H        -9.3678477179        0.7307762559        5.9901847611
 H        -9.9281399009        2.3524713675        5.3840829620
 H        -7.0106998318        3.4403323118        7.5595575279
 H        -7.3881269039        5.0540320835        7.1760726097
 H        -5.6812569391        4.2566076504        6.7726574349
 H        -6.3838136333        0.3868785273        5.4325426997
 H        -7.3899610909        1.2921221323        6.5171180251
 H        -5.6565769664        1.6757517790        6.4561160441
 H        -6.0881081106        1.8413635610        3.0996323558
 H        -5.0509716241        2.9129950516        4.2280791519
 H        -6.2633618198        3.4964434368        3.1722172628
 H       -13.6783930317        3.4654918038        2.6800352692
 H       -13.8083318923        3.1684021413        4.3345698701
 H       -15.0582093163        2.5181357419        3.1931574250
 H       -13.9650145641        0.2362482304        4.8762906350
 H       -13.1234325510       -0.6741365721        3.5333620426
 H       -14.6776905385        0.0706860848        3.2087504805
 H       -13.5467023791        4.7633483628       -3.2258245641
 H       -13.8442189939        3.9820927492       -4.7653625442
 H       -12.1213946576        3.9453034209       -3.9362957790
 H       -14.8597192034        0.9655633824       -3.2057222971
 H       -14.8346771007        1.8769066641       -4.6191701060
 H       -15.6437904649        2.5454484183       -3.2039575237
 H        -8.2086027719        2.8873493716       -8.4755071865
 H        -9.5578370918        3.7762463101       -7.7041008312
 H        -9.8597398773        2.0855125724       -8.3775880514
 H        -7.5004227844        0.5533084096       -5.7085787372
 H        -7.3540438862        0.8568523435       -7.3615733948
 H        -8.7802998501        0.0797199991       -6.8541947749
 H        -7.3639249936        7.4166812420       -1.1327064125
 H        -8.2901811898        6.5591623390       -2.3869038842
 H        -6.5644514248        6.9265216145       -2.6029091565
 H        -4.8231911765        5.9149368310       -1.1558978361
 H        -5.0686227287        4.5707981271       -0.1825127978
 H        -5.6598083179        6.1588750060        0.3964163129
 H       -12.9930184298        5.5931443860        1.6057107830
 H       -13.4046319783        6.8192109596        0.1864899394
 H       -13.5581866043        7.2783347113        1.9119001416
 H       -10.6396636826        9.3541868850        1.0819407198
 H       -12.4157642652        9.4676941125        1.6044508683
 H       -12.0489055073        8.9239438843        0.0116856774
 Na       -9.1621621796        4.1905025018        2.8245175021
