117

 C       -11.6983091634        7.8974624628        4.0680579863
 C       -11.0997966652        7.0613794964        2.9577013232
 O       -10.5128366454        6.0258611030        3.3045429802
 C       -11.5566175089        7.4407472665        1.4785575065
 C       -10.4187641867        6.7824843269        0.4591281622
 O        -9.4098688944        7.4522136337        0.2328245515
 C       -10.5948739522        5.3266204013        0.0562585074
 C        -9.3966251744        4.5185789292       -0.4876683001
 C        -8.0161638581        4.9432811384       -0.0843986304
 O        -7.6903537964        4.9480953898        1.0631997388
 C        -6.8562799070        5.3301288811       -1.1542950428
 C        -6.7600416947        4.1613234036       -2.1693562975
 O        -6.2702794496        3.1176020212       -1.7933814999
 C        -7.2845289742        4.3075293473       -3.5729678519
 C        -7.2135829034        2.9981130985       -4.3208831274
 C        -7.6242675723        3.2422287708       -5.7877396194
 O        -7.2382351965        4.2551621021       -6.3371731815
 C        -8.6458738794        2.2051207914       -6.4531890449
 C        -9.9184078549        2.1531601898       -5.5321023989
 O       -10.3719435846        3.1285650218       -4.9748695058
 C       -10.7897222050        0.9134871912       -5.6089851606
 C       -12.2559214703        1.2739151970       -5.2456868537
 C       -12.3534836157        1.7218368460       -3.7611402238
 O       -11.6325075602        1.0825143405       -2.9680039116
 C       -13.5075577783        2.6512045474       -3.2149236891
 C       -13.3896032375        2.8806452494       -1.7019961676
 O       -13.2968922360        4.0046251613       -1.2389311133
 C       -13.4574104259        1.5857175961       -0.8656292826
 C       -13.5717928111        1.9897855592        0.6496245160
 C       -13.0273075025        0.9919577130        1.6676639762
 O       -12.3600655498        0.0138267655        1.4311462735
 C       -13.0990149874        1.4552543735        3.2417539622
 C       -11.6586162237        1.8758142065        3.5243057114
 O       -11.2420180622        2.9035014705        2.9528020220
 C       -10.8657226474        0.8994667198        4.3016474615
 C        -9.6151424060        1.3330300650        5.0583611190
 C        -8.4681204265        1.7835943473        4.1511490377
 O        -8.5568761653        1.6739319440        2.9290714671
 C        -7.1937997552        2.2950306019        4.8221581111
 C        -7.4270101320        3.6131814723        5.5011397024
 O        -8.1340503406        4.4107777353        4.8658856862
 C        -6.9896302057        3.8495988067        6.9209218959
 C        -6.6494288644        1.1903111126        5.7745989309
 C        -6.1427782437        2.3472050842        3.6988606786
 C       -14.1330783288        2.5153316303        3.4556987553
 C       -13.5755831809        0.2887220288        4.2062779972
 C       -13.2505465262        4.0818653738       -3.8924912942
 C       -14.9044965558        2.0966091926       -3.6283273914
 C        -9.2729655605        2.7854074555       -7.7223247447
 C        -7.9376436562        0.9078186588       -6.5973349701
 C        -7.3320806727        6.7106256257       -1.8030081885
 C        -5.5321914115        5.4392723069       -0.3884145899
 C       -12.9216713098        6.7016265918        1.3531541214
 C       -11.7276721369        8.9291216371        1.2058276524
 H       -11.0720293410        8.7801547462        4.1526638136
 H       -11.5983543492        7.4736585654        5.0125833610
 H       -12.7478332934        8.2217497583        3.8488885572
 H       -11.4361658104        5.2377912319       -0.6982281924
 H       -11.0896576395        4.8394290616        0.8991131206
 H        -9.3975033363        4.5274830744       -1.5905066454
 H        -9.4867270468        3.4279010903       -0.2071247737
 H        -6.6968842890        5.1159454117       -4.0764754607
 H        -8.3540036272        4.6801220128       -3.5579332174
 H        -7.9232471465        2.2334614705       -3.8266183085
 H        -6.2262731107        2.6292105408       -4.3068432554
 H       -10.3979994610        0.1936750071       -4.9087241889
 H       -10.5246080605        0.4515696268       -6.5757527429
 H       -12.8202418070        0.3570829991       -5.3634586254
 H       -12.6981072891        1.9908916016       -5.9489525727
 H       -12.5829678476        0.9366952886       -0.9462322315
 H       -14.3504050451        1.0661572506       -1.3193350108
 H       -14.6757247941        1.9865654599        0.8463649478
 H       -13.0135203736        2.9295115973        0.8402036707
 H       -10.6392553212        0.1044985255        3.5947822684
 H       -11.4192988506        0.3385107980        5.0323230519
 H        -9.3775934745        0.4312130725        5.6297450116
 H        -9.7643858866        2.1646682262        5.7926645840
 H        -7.0611518771        2.9664861479        7.6474235189
 H        -7.4854510832        4.6627520898        7.3888552958
 H        -5.9404918922        3.9840074158        6.7561129337
 H        -6.6895897341        0.3028963266        5.1637771765
 H        -7.2389474026        1.0015392880        6.7128218595
 H        -5.6559649403        1.4638080568        6.0647944306
 H        -6.0433782581        1.3356412267        3.2630390968
 H        -5.2653744903        2.8881550407        3.9802164723
 H        -6.5609955178        2.9772101484        2.8721870051
 H       -13.7145237446        3.5144248689        3.3101841556
 H       -14.5994496688        2.4676884835        4.4789920860
 H       -14.9570067101        2.3234672924        2.7336325666
 H       -13.3377451135        0.5865803242        5.2582633024
 H       -13.1222964540       -0.6274134770        3.9289382842
 H       -14.6055739435        0.1706514477        4.1714487980
 H       -14.1428556398        4.6873742666       -3.8604412261
 H       -13.1118026428        3.9099675401       -4.9560104434
 H       -12.3528694571        4.4576099322       -3.4428661429
 H       -15.1486123253        1.0844805783       -3.3340230165
 H       -14.9703176918        2.0185803838       -4.7551255351
 H       -15.6725587820        2.7843687126       -3.3394133617
 H        -8.5268249987        2.7229905752       -8.4466730288
 H        -9.6230603345        3.7990379683       -7.6408495793
 H       -10.1242814063        2.1138853969       -7.9433340013
 H        -7.8236474879        0.4294139581       -5.6015333075
 H        -6.9483741877        1.0094471165       -6.9496890358
 H        -8.3797134619        0.0936681428       -7.2197322378
 H        -7.4600799720        7.4840021819       -1.0627632063
 H        -8.2925769949        6.6003524542       -2.2756931468
 H        -6.5700708431        7.0681677885       -2.5200476670
 H        -4.6500913737        5.2776197112       -0.9858392367
 H        -5.5233066101        4.5934813629        0.2682534464
 H        -5.4318856489        6.3645594373        0.1463168114
 H       -12.7984146708        5.6654118187        1.5293309062
 H       -13.1271854093        6.8830703272        0.3263998618
 H       -13.7240908864        7.1314675192        2.0288576962
 H       -10.7921682046        9.4654720086        1.2604978561
 H       -12.4894621677        9.2612075000        1.9310395430
 H       -12.1750990981        9.0996554048        0.2352096995
 Na       -9.1079811704        4.0841853963        2.6382043270
