117

 C       -10.6247875217        9.2704018193        1.6984999800
 C       -10.7676290422        7.7406801211        1.8835065247
 O       -10.2765530985        7.1731959751        2.8177604238
 C       -11.8312841566        7.0070672698        1.0278262918
 C       -11.1106210013        6.2932600451       -0.2483352766
 O       -10.6828167229        6.9011619918       -1.1862753354
 C       -10.9554570067        4.7727505606       -0.2058625986
 C        -9.6565215405        4.4281608681       -0.9523838275
 C        -8.3983381447        5.0073602046       -0.3387772470
 O        -8.2502571634        5.2374235178        0.8739781369
 C        -7.0941418166        5.1380735937       -1.2253319982
 C        -6.9790962435        3.8278734473       -2.1420955246
 O        -6.8378789591        2.7501699127       -1.6100027866
 C        -7.0769824289        3.9780262176       -3.7396316759
 C        -7.2768922809        2.6494428004       -4.3848135952
 C        -7.8576150238        2.8322158922       -5.8209570932
 O        -7.5179369424        3.7070994194       -6.5841065334
 C        -8.9314710917        1.6459860598       -6.2631617085
 C       -10.1795488136        1.6310053159       -5.2389420869
 O       -10.4243372346        2.6009460952       -4.6048428868
 C       -10.9150071655        0.2898390943       -5.0023434374
 C       -12.3700521668        0.5407181185       -4.5930044836
 C       -12.5033440772        0.9910004693       -3.2118140338
 O       -11.6182831767        0.8105500144       -2.4512789395
 C       -13.7846062709        1.7372978150       -2.6965952431
 C       -13.7438522236        1.8206857341       -1.1292477209
 O       -13.5296972913        2.8391412892       -0.5289110802
 C       -13.8913168430        0.5496833034       -0.3213779479
 C       -14.0132761110        0.8742265414        1.1764927631
 C       -12.6751178646        0.7850663408        2.0418204656
 O       -11.8084708436       -0.0132941768        1.7688097797
 C       -12.4431010541        1.5612138651        3.4468103528
 C       -11.1416768509        2.4202884528        3.4727385209
 O       -11.1557958866        3.6163508576        3.5413293016
 C        -9.8277434894        1.6994409234        3.3386056668
 C        -8.8885136596        2.1190720682        4.4995277610
 C        -7.7842383958        2.9736557304        3.9250745512
 O        -7.7486911979        3.3158123100        2.7647349867
 C        -6.7965314081        3.5120957839        5.0290494803
 C        -7.4124530414        4.9602766354        5.3397286889
 O        -8.4328905575        5.3590184603        4.8635706637
 C        -6.7382597149        5.7639040603        6.4237463141
 C        -6.8515371394        2.8001077898        6.4195337664
 C        -5.3342666045        3.6414341299        4.3683949079
 C       -13.5886912394        2.4451661001        3.6386580313
 C       -12.3015861772        0.4545217704        4.5739540779
 C       -13.4856336235        3.1905964245       -3.2410059526
 C       -15.0413355178        1.0883686591       -3.2635814079
 C        -9.4829985162        1.8622424783       -7.7006971075
 C        -8.1127205527        0.3157635240       -6.3369775288
 C        -7.1818025663        6.4389139641       -2.0664038147
 C        -5.8079642453        5.1671397838       -0.3124026559
 C       -12.7045824926        6.0847882489        1.8847938078
 C       -12.7563259207        7.9990428039        0.2916481893
 H       -10.2179921144        9.3063101952        0.7064588208
 H        -9.8875427455        9.6869763922        2.2973559501
 H       -11.5127864733        9.8306017938        1.5679506039
 H       -11.7995112735        4.1909571167       -0.6181856587
 H       -10.8541129387        4.3331085368        0.7867698243
 H        -9.6261470015        4.5809276096       -2.0613142662
 H        -9.3615393643        3.3584484675       -0.8072356579
 H        -6.0394531115        4.3300523756       -4.0615423485
 H        -7.7984866782        4.7461141914       -3.9642658472
 H        -8.0032325290        2.0696044033       -3.8911760337
 H        -6.3273359420        2.0694858903       -4.3879312685
 H       -10.3927188973       -0.3596045700       -4.2692233153
 H       -10.8300221554       -0.3378817577       -5.8949603874
 H       -12.9088366590       -0.4502374007       -4.6930082811
 H       -12.7265919378        1.1843864016       -5.4088061587
 H       -13.1531321681       -0.2239730524       -0.5606937180
 H       -14.8698424818        0.0756624100       -0.6036356108
 H       -14.8371195530        0.2954375428        1.7181009797
 H       -14.5205311686        1.8351418484        1.1965931724
 H        -9.3364944611        2.0661802201        2.4246343678
 H        -9.9798725331        0.6455045371        3.3322530680
 H        -8.3730375405        1.3442682838        5.0717258999
 H        -9.4034529993        2.5176090684        5.3838829329
 H        -6.6885338214        5.3781078682        7.4569418163
 H        -7.3445841488        6.6180467305        6.4354751346
 H        -5.7519522766        5.9253787052        6.0365985827
 H        -6.6689676949        1.7278280480        6.3613507601
 H        -7.6964649736        2.9872396754        7.0183402328
 H        -6.0078362542        3.2030628395        7.0050381928
 H        -5.0478453862        2.7102829434        3.8578964822
 H        -4.5673555645        3.7662236901        5.1641059372
 H        -5.1783370446        4.3874728151        3.6174454496
 H       -13.5710178038        3.2427415651        2.9417850896
 H       -13.5985131489        2.8323348616        4.6209769357
 H       -14.5998514070        1.9960626595        3.5079029850
 H       -11.4926816359        0.7080200862        5.3056227210
 H       -12.0214948926       -0.5321794909        4.2038189135
 H       -13.1941826013        0.3676136971        5.2404151168
 H       -12.5299911520        3.3054045680       -3.6928462137
 H       -13.7108888318        3.9433205227       -2.4039909081
 H       -14.0886735954        3.3920028763       -4.0943853465
 H       -15.1925054899        0.1323171801       -2.7098714772
 H       -14.9680025462        0.8920386233       -4.2928940074
 H       -15.9508580635        1.7088827448       -3.1759805957
 H        -8.7506859391        1.7030418487       -8.4967969585
 H        -9.9055173016        2.8415536661       -7.7653011240
 H       -10.1876945734        1.0294719239       -7.9993245071
 H        -7.5065547752        0.3329165263       -5.3861665687
 H        -7.5066963424        0.3392612664       -7.1923515208
 H        -8.7231565662       -0.6396763131       -6.2994749244
 H        -7.1985752255        7.3000960688       -1.4037150998
 H        -8.1363219542        6.4726456935       -2.6353385606
 H        -6.4215028673        6.5329883016       -2.7842736527
 H        -4.9403811812        5.2648019996       -0.9605369795
 H        -5.8018619405        4.1675484225        0.2371361230
 H        -5.7924102524        5.9045357397        0.4790439043
 H       -12.0790322151        5.4437835562        2.4919887557
 H       -13.3183585793        5.3689324666        1.3326511761
 H       -13.3616285027        6.6260066215        2.5605655035
 H       -12.2712448520        8.8047901071       -0.3031293367
 H       -13.4499853225        8.5973484494        0.8477052266
 H       -13.3375405754        7.4569726743       -0.5008806412
 Na       -9.3639840910        5.0572454338        2.8380051677
