117

 C       -10.6995676538        9.1633287963        1.0446887649
 C       -10.9179960094        7.7152514798        1.4417544347
 O       -10.0929722772        7.1756254650        2.1960702402
 C       -12.1147237399        6.8693302689        0.8073207134
 C       -11.2440995429        6.0940988764       -0.2433253166
 O       -10.7147682201        6.7608812763       -1.1366512439
 C       -10.9391481388        4.6787215608       -0.0593886885
 C        -9.6596812670        4.2457790278       -0.7602390455
 C        -8.3657870658        5.0116136515       -0.3005352339
 O        -8.1386753576        5.2083007753        0.8522141501
 C        -7.2506955039        5.2311718636       -1.3484062486
 C        -7.1795187465        3.8381436560       -2.1326582728
 O        -6.9987306890        2.8225239414       -1.4914950032
 C        -7.0210569950        3.8427105324       -3.6673535191
 C        -7.3196613305        2.4746287653       -4.2046024012
 C        -7.9190675844        2.5023024905       -5.6745271227
 O        -7.5746381485        3.3600678843       -6.4510968457
 C        -8.9423284198        1.4645135763       -6.0842927390
 C       -10.2050405498        1.5294050887       -5.1931282985
 O       -10.6582726820        2.5711777207       -4.7011695863
 C       -10.9985474872        0.2723553383       -5.0278036465
 C       -12.4695527945        0.4733594776       -4.6049357702
 C       -12.4967468289        0.7674672567       -3.0580306886
 O       -11.6256623269        0.2127959563       -2.3586647213
 C       -13.6233849835        1.6358312406       -2.4959676026
 C       -13.5983406482        1.8301562256       -0.9394604580
 O       -13.7803136592        2.9808931089       -0.4945233676
 C       -13.5762286042        0.5842644611       -0.1308623016
 C       -13.8418003837        0.8755173651        1.3562611499
 C       -12.5417810490        0.8217254301        2.1346137670
 O       -11.6236972774        0.1401320573        1.7486283253
 C       -12.3682450817        1.6933495120        3.3819802372
 C       -11.0217131846        2.5683275607        3.3242488102
 O       -11.1438988371        3.8037810261        3.5335776675
 C        -9.7223233742        1.8671477070        3.0649483771
 C        -8.6439651905        2.1695223439        4.1272319632
 C        -7.5856395722        3.2497398236        3.8286272256
 O        -7.2135316922        3.4761686928        2.6955978559
 C        -6.7143804590        3.9646132708        4.9996850478
 C        -7.4429736474        5.1903557685        5.4152784991
 O        -8.4821795204        5.5585879002        4.8672679943
 C        -6.9337259152        5.9913640757        6.5865920443
 C        -6.7196285489        3.0127977933        6.2894958698
 C        -5.2496769346        4.2086613275        4.4663166644
 C       -13.5233549138        2.5975116704        3.7472371056
 C       -12.3019871957        0.6425715550        4.5585990651
 C       -13.6435666667        3.0181742821       -3.0967155398
 C       -15.0344549033        0.9095677813       -2.9251563763
 C        -9.4008018655        1.7698323581       -7.5636127283
 C        -8.2338278114        0.0578910145       -6.0167369571
 C        -7.5446936575        6.4546606333       -2.2141598458
 C        -5.9284729029        5.3816878853       -0.5614519799
 C       -12.7841341310        5.8922758230        1.8376593945
 C       -13.1294639839        7.8153549857        0.2534436062
 H       -10.6649103233        9.2940939681        0.0149838231
 H        -9.7217902191        9.4176842401        1.3410446567
 H       -11.4826812542        9.8295642069        1.3357192602
 H       -11.7722719260        4.1323729631       -0.4526930622
 H       -10.9587716946        4.3970658745        1.0472084198
 H        -9.7906087195        4.3193709514       -1.8684993140
 H        -9.3256901715        3.2166037440       -0.4996636703
 H        -6.0368030611        4.1681221351       -4.0405662664
 H        -7.7497985594        4.6560303544       -3.9285673749
 H        -7.9987598636        1.8920159188       -3.6182785728
 H        -6.4548588961        1.8420519688       -4.2378633464
 H       -10.5472049483       -0.3336072677       -4.2011572626
 H       -10.8880813576       -0.3799995320       -5.9031972254
 H       -12.8934216559       -0.5083911353       -4.8959279069
 H       -12.9031013255        1.2642525330       -5.2491224609
 H       -12.5213559249        0.1854326602       -0.1171737228
 H       -14.2106474264       -0.2283668057       -0.4670205814
 H       -14.5730351192        0.0988090712        1.6999077667
 H       -14.3820233583        1.8686533782        1.3926717520
 H        -9.3390864263        2.2414398286        2.1197859617
 H        -9.7697846231        0.7775085572        2.9858773076
 H        -8.1141363742        1.1947976977        4.3694081392
 H        -9.1466746741        2.4049848540        5.0872642525
 H        -6.9189818435        5.2650346773        7.4050017715
 H        -7.6021970275        6.8220718616        6.8218465548
 H        -5.9182970009        6.2647878324        6.4621378881
 H        -6.4369612546        1.9897464005        6.1397648383
 H        -7.7347388246        2.9396246413        6.7175043053
 H        -6.1282126825        3.4491115419        7.0583058883
 H        -4.9932422977        3.2995835543        3.9037850709
 H        -4.3933199662        4.3721270288        5.0767640998
 H        -5.3227815787        5.0692060606        3.7514157242
 H       -13.6321215581        3.3825275014        3.0189267912
 H       -13.4266642606        3.0408301982        4.7435673562
 H       -14.4482188751        2.1380170111        3.8166029826
 H       -12.2921397983        1.1160012305        5.5815845428
 H       -11.3595417868        0.0369737486        4.5031189785
 H       -13.0749379679       -0.1100143260        4.5519235851
 H       -12.9325375133        3.6306525443       -2.4602443673
 H       -14.5612112291        3.5097014094       -3.0076069141
 H       -13.3993652493        3.0541936152       -4.1897898265
 H       -15.1087460097       -0.1614279710       -2.7829891451
 H       -15.1665886246        1.0629482202       -4.0274033006
 H       -15.7958153483        1.4430420298       -2.4083607526
 H        -8.5700534475        1.5254228144       -8.2173058075
 H        -9.7081566200        2.8322396322       -7.7971177441
 H       -10.2611925274        1.1430874606       -7.8573949433
 H        -7.9155227339       -0.1529755693       -5.0027170374
 H        -7.4449878312        0.0218562090       -6.8254428605
 H        -9.0117702655       -0.6817966586       -6.1852277340
 H        -7.5594027975        7.3907951800       -1.6898363510
 H        -8.5137632925        6.3771304692       -2.6740332204
 H        -6.7798156525        6.5751134896       -2.9906711138
 H        -5.1179713354        5.5745979619       -1.2747409455
 H        -5.8179421429        4.5787919009        0.0775851581
 H        -5.9290547489        6.3438895043       -0.0303447208
 H       -12.1899401225        5.5820149804        2.7227914195
 H       -13.1778658986        5.0076696374        1.4013823149
 H       -13.6997618691        6.3499918698        2.2510929125
 H       -12.6799873600        8.4771827229       -0.5214162651
 H       -13.6729427283        8.4892654624        0.9723589268
 H       -13.9541954416        7.3269094930       -0.2987008368
 Na       -9.1371627107        5.1447020205        2.9205799160
