117

 C       -10.9461297810        9.3642147645        0.6937634736
 C       -11.2491430186        7.9183196651        1.1382676520
 O       -10.6087608598        7.4016099430        2.0326645431
 C       -12.2947625726        7.0459163186        0.4046248400
 C       -11.3395895142        6.1611702901       -0.4858412423
 O       -10.9958908567        6.5187978832       -1.5707618001
 C       -10.8814140646        4.7779460423        0.0940106410
 C        -9.5906872893        4.3351107749       -0.6331030063
 C        -8.3385851230        5.2228076190       -0.4058168101
 O        -8.1398722900        5.8721376676        0.6234182708
 C        -7.3405545389        5.3017309283       -1.6198595450
 C        -7.2341253836        3.8515929980       -2.2876470688
 O        -7.0073327538        2.8919443727       -1.5778933310
 C        -7.3420194847        3.6799004241       -3.8163162165
 C        -7.4579021301        2.1485110235       -4.2586737195
 C        -8.0645276941        2.0568529930       -5.6992647805
 O        -7.8621807760        2.9443224748       -6.4893705158
 C        -9.0328082064        0.8946087760       -5.9977975239
 C       -10.4381954362        1.1629797578       -5.1872015238
 O       -10.6213852897        2.1908697306       -4.5863808362
 C       -11.3545470676       -0.0460724296       -5.0813425916
 C       -12.6815511496        0.3625368931       -4.4012651334
 C       -12.5230735296        0.5973907246       -2.9444596295
 O       -11.6057490753        0.1390488167       -2.3222668362
 C       -13.6965749824        1.4487070046       -2.3846715016
 C       -13.4027853964        1.7148129461       -0.8622603589
 O       -13.3246879929        2.8089787365       -0.4200793638
 C       -13.4299856912        0.5151797676        0.0205798986
 C       -13.4890522352        0.7804529617        1.5773806597
 C       -12.0810825482        0.8891915362        2.1955366453
 O       -11.0869121742        0.3859942223        1.6931116396
 C       -11.9039726381        1.6147081676        3.5799894517
 C       -10.5164454817        2.4047654275        3.6024607212
 O       -10.6307153680        3.6376896820        3.4333072209
 C        -9.2696834439        1.5556896780        3.7521746272
 C        -8.1332422097        2.1453634353        4.6599483950
 C        -7.6193355021        3.4842329464        4.1903906025
 O        -7.8883323385        3.9020024555        3.0649099598
 C        -6.7448138799        4.2598228004        5.1418214770
 C        -7.5050073833        5.4876046592        5.7412169812
 O        -8.1189499335        6.2179273058        4.9952249751
 C        -7.3159096031        5.6954506564        7.2385693554
 C        -6.1826007466        3.3245264454        6.2694090668
 C        -5.5926695320        4.7319391082        4.2746353892
 C       -13.0322076783        2.6367856828        3.9784297535
 C       -12.0505777053        0.4074498593        4.5626046484
 C       -13.6824945741        2.9412070102       -2.9209845931
 C       -14.9776751358        0.7575561659       -2.7494010289
 C        -9.5294662304        1.0123828096       -7.5063091647
 C        -8.3328413918       -0.4088947069       -5.7204793170
 C        -7.9844586256        6.2871690781       -2.6058294958
 C        -5.9783674061        5.8131157512       -1.0790309115
 C       -13.1868976682        6.2119502372        1.4162110123
 C       -13.1607219659        7.7775308887       -0.5763863932
 H       -11.0917167032        9.3670903009       -0.4067361434
 H        -9.9563469718        9.7959058948        0.8679935849
 H       -11.6306637653       10.1944020580        1.1362732101
 H       -11.6672367719        4.0396392131        0.0029635330
 H       -10.7119573974        4.9807325509        1.1738069122
 H        -9.8001717895        4.4326339416       -1.7029765144
 H        -9.2706287062        3.3259403812       -0.4050245509
 H        -6.5657836416        4.2305222948       -4.2562845751
 H        -8.3090200049        4.1871445499       -4.0401725942
 H        -8.0877477946        1.5395714027       -3.5599740838
 H        -6.4521572106        1.7557574993       -4.3441982401
 H       -10.7268253538       -0.6681434272       -4.4849549235
 H       -11.6014877056       -0.4234881097       -6.0517463873
 H       -13.4674022175       -0.3971447557       -4.6177124323
 H       -13.0738975305        1.3166984334       -4.8829617211
 H       -12.4835402882       -0.0329708530       -0.1011859521
 H       -14.2213607413       -0.1361366517       -0.2940331909
 H       -13.9783976083       -0.0594773775        1.9700459777
 H       -14.0213242147        1.7266966968        1.6672226196
 H        -8.8805495519        1.2382510815        2.7546078125
 H        -9.5124642912        0.5771356837        4.2549376148
 H        -7.3796835240        1.3660137030        4.5197438292
 H        -8.5587043508        2.1904735393        5.6397464720
 H        -7.9813679824        5.0144510672        7.7028900392
 H        -7.7373889323        6.7124385018        7.3855991135
 H        -6.2622754332        5.7000284825        7.6816947570
 H        -5.8976680876        2.3335140597        5.9481129083
 H        -7.0170530240        3.2594261412        7.0020912616
 H        -5.3024953838        3.6956310789        6.7644265917
 H        -5.4195823702        3.9990751432        3.5265974301
 H        -4.7121723674        4.9602622622        4.8686892340
 H        -5.8804109130        5.6240479713        3.7422640652
 H       -13.1245366144        3.3394611159        3.0935777411
 H       -12.7508206702        3.3270788194        4.8011979171
 H       -14.0023534300        2.1606811601        4.0419013673
 H       -11.6181321584        0.5887936807        5.4746427180
 H       -11.6281969539       -0.5219487755        4.1755670826
 H       -13.1313210150        0.2551249290        4.7577452688
 H       -12.8383397805        3.5003988338       -2.5530866579
 H       -14.5759522085        3.3791034615       -2.5463536015
 H       -13.6563163354        3.0617930665       -4.0226761401
 H       -14.8434040960       -0.2823784320       -2.5776916369
 H       -15.2285541521        1.0354899725       -3.7930827729
 H       -15.8165704762        1.1101498383       -2.1433971946
 H        -8.7354619132        0.7041957028       -8.2343863220
 H        -9.8558036527        2.0146883774       -7.7774350637
 H       -10.3208242157        0.3851226825       -7.7015459612
 H        -7.7104512144       -0.3871358180       -4.8455216578
 H        -7.6315379759       -0.6425720810       -6.5767519849
 H        -9.0352179675       -1.1657894608       -5.7449457768
 H        -8.1526454216        7.2602019396       -2.1229021682
 H        -8.9309802032        5.9888022375       -2.9998726320
 H        -7.3428299431        6.4178864936       -3.5267596563
 H        -5.2092742709        5.6782253916       -1.8140364444
 H        -5.6205495969        5.1583244853       -0.2615700637
 H        -6.1363205280        6.8106835228       -0.6537546260
 H       -12.7502299741        6.1447329433        2.4550778151
 H       -13.2948062567        5.1793987210        0.9783022427
 H       -14.1450138322        6.6498481858        1.4768210530
 H       -12.5742487235        7.9620137097       -1.4527172524
 H       -13.5531242435        8.7449625978       -0.2178052140
 H       -13.9529658838        7.1655405355       -0.9036513068
 Na       -9.1319635115        5.7747058450        2.7116960339
