117

 C       -11.1209756387        9.2786001188        1.0823348949
 C       -11.2794285020        7.7954627187        1.2001716786
 O       -10.5900409921        7.3046122098        2.0811505887
 C       -12.2086562910        7.0025191465        0.2734179081
 C       -11.3246086332        6.0401234467       -0.5445354987
 O       -11.1105801124        6.2827730159       -1.7064544238
 C       -10.8151509795        4.6598617653        0.0563629192
 C        -9.5173507750        4.2796623227       -0.7429506061
 C        -8.3307900353        5.2696402746       -0.4946724309
 O        -8.1966051436        5.8205133662        0.5636959202
 C        -7.3427836689        5.4282324075       -1.7149137749
 C        -7.2909419908        3.9891069295       -2.4643177024
 O        -6.8683294268        3.0755677046       -1.7777780955
 C        -7.9675744035        3.8060748990       -3.8516520674
 C        -7.9983026766        2.3189491745       -4.1728417162
 C        -8.1823590031        1.9035187474       -5.6523069009
 O        -7.7011276015        2.4575816465       -6.6069932953
 C        -9.0892006086        0.6094769263       -5.7973174614
 C       -10.4897605567        0.7405912258       -5.0868577543
 O       -10.8567556954        1.8319617701       -4.7037131028
 C       -11.5414531063       -0.3698081834       -5.0186451644
 C       -12.7851906447        0.0444579585       -4.3718407961
 C       -12.6571854719        0.4047237736       -2.8487714338
 O       -11.7536105035       -0.0333551267       -2.2140047517
 C       -13.6624958350        1.4341475203       -2.2069083221
 C       -13.3723321594        1.6187219718       -0.6842612159
 O       -13.4067102750        2.6994367189       -0.0202488033
 C       -13.1085970519        0.3639641864        0.1470366860
 C       -13.0872419578        0.7235543768        1.6788963367
 C       -11.7059931828        1.1639475658        2.2121072607
 O       -10.6393074214        1.0215182525        1.6512579383
 C       -11.7708614052        1.9055604681        3.6288348823
 C       -10.3658078579        2.5663139685        3.8766734872
 O       -10.3416642156        3.7951601900        3.8580730087
 C        -9.0611032955        1.7429185247        3.9165731548
 C        -7.8800420817        2.3329687408        4.6229795387
 C        -7.3518132677        3.6234064236        3.9709549767
 O        -7.4264293798        3.8555354697        2.7874955033
 C        -6.6578653759        4.6661757436        4.9882290345
 C        -7.8661003334        5.5990051518        5.5107339925
 O        -8.7916846952        5.8411079648        4.7522666054
 C        -7.8555641699        6.0669693379        6.9253741711
 C        -5.8606066637        3.9615248001        6.1709514928
 C        -5.6346730785        5.5088781482        4.3226109245
 C       -12.9370025870        2.8977676968        3.7217637415
 C       -12.1254406387        0.7601942811        4.6521915509
 C       -13.4975401901        2.7535550900       -2.9810155154
 C       -15.1016492040        0.8597051059       -2.4045135377
 C        -9.4236149229        0.4291829359       -7.3345275084
 C        -8.3123708927       -0.6986567707       -5.3228744799
 C        -7.9997002931        6.6081462863       -2.5869102715
 C        -5.9201091849        5.8213805801       -1.2561450315
 C       -13.1643081745        6.1489767273        1.2175651842
 C       -13.0586131714        7.9471394866       -0.6645299346
 H       -10.4136850432        9.5518496511        0.3315743004
 H       -10.9935124261        9.7321972958        2.0121957732
 H       -12.0791452690        9.7632004878        0.7023193942
 H       -11.5985793647        3.9766653520       -0.3063626563
 H       -10.7831658109        4.6000572322        1.1425500155
 H        -9.7267714979        4.2253505583       -1.8286693124
 H        -9.2972521132        3.2028851168       -0.4905774309
 H        -7.2315227921        4.3338645646       -4.5580247297
 H        -8.9577605808        4.2283042498       -3.8351818745
 H        -8.7740332677        1.8394807776       -3.6567143642
 H        -7.0347741091        1.8592506072       -3.9045205702
 H       -11.0438490773       -1.2842671952       -4.6641988867
 H       -11.8672798424       -0.4674552063       -6.0518311022
 H       -13.6935056213       -0.6388672154       -4.3273091722
 H       -13.1872367377        0.8810528776       -4.9567790070
 H       -12.1510911036       -0.1381513492       -0.0319264394
 H       -13.8753488745       -0.3635492724       -0.1966966562
 H       -13.4238040777       -0.2285471472        2.2258363812
 H       -13.8436772502        1.4476946108        1.9383974418
 H        -8.7252996735        1.3883197136        2.9026722193
 H        -9.4163568347        0.8424463789        4.4052131904
 H        -7.0134165343        1.6128031412        4.6490497797
 H        -8.0995145300        2.4528604375        5.7273476634
 H        -7.9976287595        5.3289669768        7.7387781111
 H        -8.7136512646        6.7748118461        7.0252819294
 H        -6.9700899724        6.6132320001        7.0263712452
 H        -5.0610010987        3.3139440487        5.8004451697
 H        -6.4830771197        3.4100053632        6.8616691361
 H        -5.5221591014        4.8452136609        6.6905365329
 H        -4.8248518326        4.8577759645        4.0143487515
 H        -5.1761333584        6.0909001016        5.0648436941
 H        -5.9956437825        6.0790744767        3.4526777264
 H       -13.0221376247        3.2561064217        2.7026878159
 H       -12.7690643712        3.6460102965        4.5300938247
 H       -13.8226787575        2.4117643666        4.0333613256
 H       -12.5879777396        1.1885952053        5.5666506304
 H       -11.2091910769        0.2685859656        4.9121907425
 H       -12.7695214425        0.0913130477        4.2037757713
 H       -12.4391263084        2.9663148822       -3.2855573250
 H       -13.9280850462        3.5527387701       -2.4519170078
 H       -14.0097538247        2.7024175418       -3.9391430622
 H       -15.1636971135       -0.1840315126       -2.0235137875
 H       -15.3860227678        0.7847580647       -3.4436543619
 H       -15.7272857372        1.5308633885       -1.8558925229
 H        -8.5185942378        0.4396553854       -7.8432698225
 H       -10.0404537705        1.2466436427       -7.6991042916
 H        -9.7586033007       -0.5572370967       -7.6537802002
 H        -7.9625191326       -0.6049480015       -4.3355935050
 H        -7.4783138542       -0.8800224482       -6.0196069189
 H        -8.9356480869       -1.5862148991       -5.2134630281
 H        -8.0592365583        7.5450695393       -2.0022960627
 H        -9.0425768458        6.3783417987       -2.9460014278
 H        -7.4102101737        6.8606561691       -3.4700166442
 H        -5.3602233602        6.2461032144       -2.1225950881
 H        -5.4919470497        5.0108681917       -0.7760780842
 H        -5.9958553248        6.6423240021       -0.5095610172
 H       -12.5841721297        5.8231149983        2.1489727476
 H       -13.5417672129        5.3089632183        0.6535195243
 H       -14.0261976954        6.8204881669        1.4236206551
 H       -12.4544810615        8.5428647729       -1.3145121984
 H       -13.6818047635        8.5556037818       -0.0381043684
 H       -13.6693156991        7.2315379632       -1.1863685496
 Na       -9.3299475917        5.3662067521        2.3932126953
