117

 C       -11.2457046630        9.1790605683        1.3205265358
 C       -11.3216888534        7.6599784733        1.2632072581
 O       -10.6653010376        7.0322606492        2.0912432385
 C       -12.3306456734        6.9013469032        0.3322212183
 C       -11.3442342602        6.0326874743       -0.6428515068
 O       -10.9437695094        6.4608753607       -1.7227724014
 C       -10.9096339396        4.6703444678       -0.0967379129
 C        -9.7447255176        4.2047855381       -0.9104066886
 C        -8.4876750479        5.0519384299       -0.7224314981
 O        -8.4432614096        5.8449151469        0.2217910591
 C        -7.4366022624        5.2543103356       -1.8814941612
 C        -6.9942223955        3.9134277311       -2.5182502318
 O        -6.2067572214        3.1339042359       -2.0444782318
 C        -7.7708308760        3.5630938661       -3.8498492417
 C        -7.9245699987        2.0766298731       -3.9449520549
 C        -8.4471602533        1.7277967689       -5.4470798814
 O        -8.0848581808        2.4302115817       -6.3608889656
 C        -9.2587013512        0.3664083211       -5.7573624242
 C       -10.7502882661        0.6689501117       -5.2343763761
 O       -11.0468025921        1.7785028868       -4.8554804286
 C       -11.7161913175       -0.5559585422       -5.1430402674
 C       -12.9495395925       -0.2543751143       -4.2124922401
 C       -12.5881270540        0.2326220869       -2.8041236622
 O       -11.5218568932       -0.1278110573       -2.3095903888
 C       -13.5320018456        1.2305359952       -2.0748310598
 C       -13.0868677851        1.3784764986       -0.5557262722
 O       -13.1175064862        2.4336139364       -0.0539857722
 C       -12.9787519586        0.0349410558        0.2951943597
 C       -12.9338604647        0.3909987930        1.7776140226
 C       -11.7692237018        1.2630966223        2.1762558481
 O       -10.8313621409        1.5037403545        1.4696445936
 C       -11.7106562507        1.9071090776        3.6602332871
 C       -10.3414961248        2.7833802747        3.6793948874
 O       -10.3732457955        3.9816807594        3.5620285021
 C        -9.0582446784        1.8484387628        3.8628327174
 C        -7.9887718866        2.5400922499        4.8342783198
 C        -7.3823146562        3.7848413780        4.1882595161
 O        -7.2821709628        3.7717005572        2.9774799085
 C        -6.8406412691        5.1411061253        4.9272552774
 C        -7.8962302971        6.0579380686        5.4789993750
 O        -8.6940805405        6.5860015315        4.7467645001
 C        -7.9933886264        6.2008248286        6.9792898871
 C        -5.7906107428        4.6809083104        5.9696685447
 C        -6.0395754304        5.8628994588        3.8374781786
 C       -12.8914316528        2.9775226494        3.9118911762
 C       -11.8281024388        0.7403743245        4.7582076773
 C       -13.4036198631        2.6303579653       -2.7517120726
 C       -15.0343809345        0.8678499383       -2.1454371856
 C        -9.2523819468        0.0924332633       -7.2502546649
 C        -8.5951727072       -0.7891501471       -4.9894892912
 C        -8.0995344587        6.1825298520       -2.8581658825
 C        -6.1199579575        5.8998063037       -1.3376884311
 C       -13.2584222173        5.9906372031        1.1609696956
 C       -13.2126427711        7.9534660788       -0.5076691664
 H       -11.3939539539        9.6071367974        0.3275828460
 H       -10.2224045524        9.4585970780        1.6934825578
 H       -11.9756848296        9.6506680295        1.8824303733
 H       -11.7916512426        4.0648421253       -0.1244270900
 H       -10.6542156012        4.9053545863        0.9873258219
 H       -10.0090507646        4.2652090985       -2.0049281472
 H        -9.5737513226        3.1169013611       -0.8514993689
 H        -7.1696796010        3.9707206521       -4.6814554420
 H        -8.7914050374        4.0705346707       -3.8793621315
 H        -8.5734046591        1.6279141020       -3.1921548938
 H        -7.0225266372        1.5774592990       -3.7595940878
 H       -11.1086902869       -1.4358157231       -4.8858700602
 H       -12.2019701695       -0.7852918136       -6.1032809703
 H       -13.7133850690       -1.0649307322       -4.2713039324
 H       -13.5211672285        0.6703766115       -4.5571357017
 H       -12.1448540660       -0.5949898706       -0.0427207792
 H       -13.8406659865       -0.5657161427        0.0127802115
 H       -12.9966724794       -0.5541813526        2.3541108110
 H       -13.8671171551        0.8524330869        2.1743844665
 H        -8.6015045778        1.7536401047        2.8637664081
 H        -9.3497109851        0.8364168862        4.2010632367
 H        -7.1892860322        1.7519789163        5.0147391025
 H        -8.1724187578        2.6701512349        5.9100841894
 H        -8.0674839864        5.2789325823        7.4944440552
 H        -8.8682648600        6.7950842102        7.1812884291
 H        -7.0263007963        6.6491219184        7.4303373757
 H        -5.0796552145        4.0131506116        5.5101804510
 H        -6.3624716023        4.2459405763        6.8259299003
 H        -5.2266983032        5.5427860460        6.2822068124
 H        -5.1503696621        5.3110574357        3.6080051688
 H        -5.8245049915        6.8909425935        4.1326069843
 H        -6.6189272465        5.9357933891        2.9590829154
 H       -12.9747851791        3.6059547640        3.0108597244
 H       -12.5365747346        3.6135326792        4.7127718643
 H       -13.7866882402        2.3896169491        4.1797730835
 H       -11.1465867970        0.8531897462        5.4980221725
 H       -11.8718396111       -0.2363065127        4.3210265032
 H       -12.8313381018        0.9406291430        5.1562305285
 H       -12.5905818107        3.1372792986       -2.3267882561
 H       -14.2457310444        3.3105370401       -2.6165847859
 H       -13.3871352187        2.4602494894       -3.8212178527
 H       -15.2060952083       -0.1000395583       -1.7204580854
 H       -15.3453447459        0.9027865256       -3.2255635835
 H       -15.6025704198        1.5968819053       -1.5570913927
 H        -8.2059033282       -0.0013821074       -7.6782162260
 H        -9.6744101302        0.8887931467       -7.8362267622
 H        -9.8682400449       -0.7287834907       -7.4342808065
 H        -9.1167597861       -1.1371862615       -4.0898997732
 H        -7.5394386054       -0.6302165401       -4.6779427542
 H        -8.5256570338       -1.6058466587       -5.6419268928
 H        -8.1408610392        7.2142214736       -2.4928375497
 H        -9.0720250058        5.8377802288       -3.1220262577
 H        -7.4484654192        6.2424659029       -3.7781860027
 H        -5.5309423567        6.1933434920       -2.1681845842
 H        -5.5838816606        5.1335028844       -0.7046695402
 H        -6.3140097173        6.8670025369       -0.9026130511
 H       -12.6762665739        5.0936632823        1.4165257519
 H       -14.1022717003        5.6649756974        0.4610036365
 H       -13.5277365764        6.4772666121        2.0785347482
 H       -12.5386273972        8.4099038792       -1.1899113411
 H       -13.6650382808        8.6095649287        0.2193621912
 H       -13.9608338152        7.4528473216       -1.0367413616
 Na       -8.7552502773        5.7289937582        2.5164461559
