117

 C       -11.2759595480        9.0385642427        1.2519609587
 C       -11.4538574881        7.5407737807        1.3412416713
 O       -10.7574612719        6.8364137800        2.0700632750
 C       -12.4591310640        6.8654148871        0.3340853154
 C       -11.4380992792        6.1007659134       -0.6507020615
 O       -10.9122842596        6.7698476140       -1.5310793017
 C       -10.9230147142        4.7500981010       -0.2768174603
 C        -9.6369259914        4.3603721590       -1.0245935171
 C        -8.3134610426        5.1275309172       -0.7686278380
 O        -7.9395796990        5.4849972913        0.3491120252
 C        -7.3707922077        5.3643699396       -1.9837098782
 C        -7.0884184623        3.8809590596       -2.5610503543
 O        -6.2658224062        3.2682523971       -1.9270521717
 C        -7.8797626089        3.4268099105       -3.8115051702
 C        -7.8789394534        1.8663149280       -3.9304874704
 C        -8.5467211230        1.5041109812       -5.3600112378
 O        -8.3444426683        2.2654450890       -6.2778591921
 C        -9.3422624094        0.2076620870       -5.5952883013
 C       -10.7861386381        0.5003604980       -5.1372991914
 O       -11.1326906456        1.6362134469       -4.9632254135
 C       -11.8099774116       -0.6350474355       -4.9948695188
 C       -13.0154975780       -0.2750427036       -4.2087930102
 C       -12.5203783159        0.1899281855       -2.7395907053
 O       -11.4588085990       -0.1434145781       -2.2315628643
 C       -13.4931369671        1.1256486621       -2.0001332545
 C       -13.2006705944        1.3047234736       -0.4388607634
 O       -13.2784607128        2.3310478277        0.1396335959
 C       -12.8597659837       -0.0517646139        0.3271251992
 C       -12.6573816203        0.2396586256        1.8435892677
 C       -11.5943783330        1.2369704051        2.1516167394
 O       -10.7719486773        1.5601446623        1.3715562061
 C       -11.5979128779        1.9533970777        3.5836716000
 C       -10.3103704583        2.8060315281        3.6647951792
 O       -10.3119912216        4.0115027848        3.4236030436
 C        -9.0385400670        2.1472755139        4.2861778768
 C        -8.1323013954        3.1659195921        4.9336191168
 C        -7.4129304112        4.2862043196        4.0656759645
 O        -7.4328815376        4.1569757681        2.8658001783
 C        -6.5953041334        5.3731121090        4.8061588135
 C        -7.8366444845        6.2881297225        5.3441286087
 O        -8.5586975881        6.7885619699        4.5204184374
 C        -8.1602234015        6.1667647098        6.8871865346
 C        -5.7710866203        4.6041780952        5.8910734892
 C        -5.6904617563        6.1827147217        3.9058446182
 C       -12.9490154423        2.7943469790        3.7960894606
 C       -11.6766309658        0.7884689711        4.6092385516
 C       -13.3588144012        2.5101806179       -2.6840300332
 C       -14.9638400237        0.5866331054       -2.2106935840
 C        -9.3774098650       -0.1694642233       -7.1186659489
 C        -8.7857586661       -0.9469563531       -4.8845079821
 C        -8.0002305337        6.2445493016       -3.1253365737
 C        -6.0431802039        6.0074606850       -1.5284627097
 C       -13.3579425040        5.9061229588        1.1998378538
 C       -13.3069926209        7.8810665608       -0.5124647760
 H       -10.9243276356        9.4624758374        0.2858345110
 H       -10.5319752786        9.4955529282        2.0081344141
 H       -12.3045449767        9.4344087349        1.3536264722
 H       -11.7353504070        4.0746473087       -0.4415469898
 H       -10.8434895950        4.8689764060        0.8215331886
 H        -9.8561154264        4.2827647813       -2.0654984252
 H        -9.5015414036        3.3178500680       -0.7468319962
 H        -7.4894714120        4.0270261527       -4.6488862304
 H        -8.8596542383        3.8423286355       -3.7444231881
 H        -8.3322470476        1.3549846942       -3.0862136971
 H        -6.8213096125        1.5005840950       -3.8509156479
 H       -11.2270291855       -1.4017874235       -4.5002945245
 H       -11.9864628614       -1.0538948909       -5.9564771177
 H       -13.8122885292       -0.9996338630       -3.9862932990
 H       -13.4735916738        0.6170572011       -4.6267363093
 H       -12.0488404779       -0.5531693945       -0.1917590835
 H       -13.7406930367       -0.6849206961        0.1686894675
 H       -12.5808997199       -0.7438311583        2.3379389717
 H       -13.5492183538        0.5729551171        2.2760578805
 H        -8.5164633408        1.6892265055        3.3940670952
 H        -9.3275774431        1.4010106936        5.0309518916
 H        -7.2546351548        2.6398384879        5.2927378370
 H        -8.5676799010        3.5040849578        5.8757848973
 H        -8.0363817771        5.1805843420        7.2719765756
 H        -9.1255296567        6.5971986932        7.1344682656
 H        -7.3612182369        6.7927908440        7.4361620467
 H        -4.9411389688        4.1565320533        5.4023652103
 H        -6.3902967179        3.9192346961        6.5036771626
 H        -5.3541952435        5.3567269989        6.5157157724
 H        -5.1897935815        5.4081362573        3.3109735092
 H        -4.9457245923        6.6753803681        4.5532953758
 H        -6.1267504091        6.9912890728        3.2982682405
 H       -12.8770812501        3.7740112806        3.3162336613
 H       -13.1284182139        2.9649612256        4.8670239348
 H       -13.6090299027        2.1744360192        3.2829420554
 H       -12.0403070614        1.2258590372        5.4934320308
 H       -10.7431364180        0.1540117426        4.7163656977
 H       -12.5126388726        0.0951338939        4.2571211406
 H       -12.2876486010        2.5643587419       -2.9343039321
 H       -13.4760702244        3.3393804280       -2.0379741624
 H       -14.1029376237        2.6016186778       -3.5109071921
 H       -15.0734678123       -0.3973555918       -1.7769795839
 H       -15.2424781311        0.6894715018       -3.2693473023
 H       -15.6037501203        1.2669120373       -1.7037045421
 H        -8.3119840245       -0.2411736585       -7.4520500111
 H        -9.7063785145        0.6923667327       -7.7321218401
 H       -10.0605847543       -0.9061523132       -7.3564381009
 H        -8.5451927512       -0.7382368900       -3.8649743895
 H        -7.7654396036       -1.3513155910       -5.2349865640
 H        -9.4294215128       -1.7761112486       -4.9778729838
 H        -8.2483198108        7.2134197356       -2.7242708549
 H        -8.9201451029        5.8697215025       -3.5007247374
 H        -7.2906330502        6.3459356585       -3.9699467271
 H        -5.4331676144        6.3425755661       -2.3815254778
 H        -5.4211095107        5.2078312513       -1.0949739815
 H        -6.2842149289        6.8084553978       -0.7871057955
 H       -12.8877369391        5.7602683894        2.1786918142
 H       -13.5277795433        4.9656633623        0.6818737978
 H       -14.2359602418        6.3954187913        1.3708477299
 H       -12.6006152585        8.3990402035       -1.1758303300
 H       -13.9457080097        8.4473644392        0.2289660336
 H       -13.9339755251        7.2640108451       -1.1581241416
 Na       -9.0186198480        5.7774479657        2.4794951117
