117

 C       -12.4710794807        9.5366418410        1.0083685104
 C       -11.7881546104        8.1657407991        0.9680678373
 O       -10.7667187529        7.9716597953        1.5989252714
 C       -12.5503177598        6.9261665178        0.2576505116
 C       -11.5060621146        6.0611334630       -0.5905062985
 O       -11.1593355997        6.4899121005       -1.6793747423
 C       -11.0065483606        4.7409220437        0.0043127005
 C        -9.8260920667        4.1897449423       -0.7967214083
 C        -8.6065142330        5.0771922708       -0.7515965321
 O        -8.3198787421        5.7739318952        0.2054005927
 C        -7.7463302318        5.0622298554       -2.1063307501
 C        -7.4130345519        3.5825064625       -2.5336279644
 O        -6.8935364369        2.8358158142       -1.7547516478
 C        -7.7782852686        3.0993984255       -3.9028084224
 C        -8.2191562030        1.5958567959       -3.9440273071
 C        -8.4638781662        1.1384706597       -5.3516012434
 O        -8.0408651292        1.6659548433       -6.3530479104
 C        -9.3430077396       -0.1543504663       -5.4825553291
 C       -10.8064748641        0.2220660672       -5.1337379212
 O       -11.0969006308        1.3937041706       -5.0833481731
 C       -11.9586747786       -0.8354109348       -5.0466368955
 C       -13.0340208063       -0.2793323731       -4.0587386497
 C       -12.6855571143       -0.1618940243       -2.6433529457
 O       -11.5920122619       -0.5946853341       -2.3397166958
 C       -13.5997854864        0.5498646523       -1.5499671331
 C       -12.8551438590        0.7457517138       -0.1348067079
 O       -12.7173341059        1.8427536593        0.2558399494
 C       -12.3391647434       -0.4546894999        0.7543130927
 C       -12.1481967155       -0.0130671663        2.1902447610
 C       -11.0349893729        0.9763497010        2.4183113705
 O        -9.9687597485        1.0369373603        1.8365789546
 C       -11.2372333785        1.9615814485        3.6416214016
 C       -10.2608006405        3.1451474561        3.5373702071
 O       -10.6319257368        4.3237334655        3.3411672215
 C        -8.7411248549        2.7858212325        3.7840465808
 C        -8.0845836421        3.7981293266        4.7845101341
 C        -7.2112158968        4.7961585346        4.0431623633
 O        -7.0548761129        4.7237729332        2.8200750389
 C        -6.5610604889        5.9385138048        4.8806375926
 C        -7.4357230745        7.2104834464        4.6646830400
 O        -8.4028589501        7.2487397672        3.9242381036
 C        -6.9094626081        8.4474112231        5.2941813888
 C        -6.5192031304        5.4797057773        6.3747976334
 C        -5.1956482925        6.2257527493        4.1878288741
 C       -12.7110374510        2.4499385906        3.6910025597
 C       -11.0551522406        1.2042834973        4.9668332500
 C       -14.1188310984        1.8655224797       -2.0691820902
 C       -14.8238424595       -0.4433617583       -1.4226310976
 C        -9.3834449844       -0.6776004870       -6.9181974980
 C        -8.8223079640       -1.2260802123       -4.4684991631
 C        -8.4490728466        5.9799136834       -3.1242413823
 C        -6.3836656432        5.6791840464       -1.7549053736
 C       -13.3163751229        6.0740043907        1.2110750154
 C       -13.6206800553        7.5240660473       -0.7287268748
 H       -12.5542746372        9.8984747537       -0.0390713116
 H       -11.7856441394       10.1780625018        1.5710472371
 H       -13.4244816731        9.6698673235        1.3969861820
 H       -11.7820820741        3.9257074452        0.0944859325
 H       -10.7475965727        4.9796915511        1.0101850793
 H       -10.1886361200        3.9923363102       -1.7838994643
 H        -9.4773435776        3.2224939557       -0.3835019432
 H        -6.8601340029        3.1304512025       -4.5151365087
 H        -8.5831867403        3.7066300421       -4.2150266196
 H        -9.1470529890        1.4072735220       -3.4290762650
 H        -7.4647811608        0.8917557287       -3.4472499478
 H       -11.5262416618       -1.7122522308       -4.6122423281
 H       -12.4791297520       -1.0378393157       -5.9775011734
 H       -13.9173804685       -0.9350846725       -4.2692844740
 H       -13.2632990462        0.6970296955       -4.4341883467
 H       -11.3875365519       -0.6931897715        0.2534349919
 H       -13.0905598038       -1.2358915373        0.6528853355
 H       -11.7474149509       -0.8448912985        2.7604462691
 H       -13.0734529020        0.3282426831        2.6617029719
 H        -8.2073601195        2.7266981453        2.8228539776
 H        -8.5644773745        1.7806279112        4.1318179750
 H        -7.4157862784        3.2621818918        5.4152267032
 H        -8.8223957495        4.2589080624        5.4160664195
 H        -6.0354265524        8.3883272975        5.8544032674
 H        -7.6207277860        8.8313793233        5.9899121999
 H        -6.8029304716        9.3210364411        4.5949991219
 H        -6.4277138181        4.4464575937        6.6985370664
 H        -7.4859681970        5.8443513562        6.7531815526
 H        -5.7413309147        5.9250867482        6.9850741283
 H        -4.6180991588        5.3272789435        4.2331519217
 H        -4.6608996161        7.0426133411        4.5862560259
 H        -5.3970177454        6.5101635878        3.1551412116
 H       -13.2619834857        2.3961278259        2.7696061647
 H       -12.8557702940        3.5092061840        4.0092976730
 H       -13.2131820486        1.8608704539        4.3913681707
 H       -11.3525844911        1.8645469155        5.7159656679
 H       -10.1102528317        0.7798772234        5.3639081670
 H       -11.7936989801        0.3822038469        5.1401034477
 H       -13.1682576663        2.4528669640       -2.0239680798
 H       -14.8234873608        2.4068783007       -1.5147133501
 H       -14.5209533695        1.7608149858       -3.1056325807
 H       -14.6322560261       -1.4866064164       -1.0947264585
 H       -15.2865035086       -0.4806591082       -2.3956059945
 H       -15.6330013440       -0.0749449130       -0.8321179769
 H        -8.4249671351       -1.2218751444       -7.1508871069
 H        -9.3587290243        0.1874881818       -7.6252194266
 H       -10.3006959743       -1.2055554421       -7.0326164674
 H        -9.0295949860       -0.9915967525       -3.4428564052
 H        -7.6902932884       -1.3786806613       -4.5918776880
 H        -9.3411465906       -2.1429937426       -4.7607289200
 H        -8.3793706441        7.0585880679       -2.8749684472
 H        -9.5305380804        5.7199767779       -3.1148882430
 H        -8.0731164499        5.7670826314       -4.1302206521
 H        -5.8867714977        5.9768764137       -2.6544260687
 H        -5.7090381577        4.9951882317       -1.2859186860
 H        -6.5066249000        6.6479069920       -1.2948908290
 H       -12.7981251958        5.9591115496        2.1910510161
 H       -13.4025749407        5.0101858029        0.9277091589
 H       -14.2668472467        6.3874356146        1.4684449609
 H       -13.1500873430        8.0614248709       -1.5230965455
 H       -14.3282905015        8.0816130698       -0.1218671025
 H       -14.1436433191        6.6834833996       -1.1446020208
 Na       -9.1795569543        6.0296234272        2.2562970399
