117

 C       -12.1071822990        9.4106876859        0.2602718303
 C       -11.7961344776        8.0710623656        0.8221779221
 O       -11.0068568808        7.9013598854        1.7208697638
 C       -12.6376478541        6.7673082485        0.3357652721
 C       -11.6476293919        6.0612560552       -0.6289749446
 O       -11.3069860601        6.5027573913       -1.7182101296
 C       -11.4541130839        4.6374131999       -0.3068639265
 C       -10.2088632067        4.0483012150       -1.0398962145
 C        -9.0145189034        4.9802687070       -0.9879632786
 O        -8.8397391510        5.7891664543       -0.0750669868
 C        -7.9803640095        4.9211792328       -2.1793964768
 C        -7.7960243713        3.4506426071       -2.4503513506
 O        -7.3966031917        2.7066046779       -1.5722771341
 C        -8.2505291287        2.7674176159       -3.7824526598
 C        -7.9186257656        1.3017439900       -3.7990277281
 C        -8.2566809394        0.7971239493       -5.1929050413
 O        -7.5119171487        1.1627132995       -6.0747605064
 C        -9.4443526643       -0.1973332814       -5.4109802581
 C       -10.7932436900        0.3207706948       -4.8672824452
 O       -10.9735246109        1.4906811605       -4.5855601343
 C       -11.9363545746       -0.6221062119       -4.7214717609
 C       -13.0766213495       -0.3011603412       -3.7403725820
 C       -12.5892837515       -0.4632421313       -2.3463872994
 O       -11.5193872842       -0.9282298475       -2.0257101396
 C       -13.5239824372        0.1696012579       -1.1970144055
 C       -12.6858580861        0.4783494170        0.0727749446
 O       -12.5202185846        1.6465018792        0.4124643688
 C       -11.8781966396       -0.6277372472        0.8294178016
 C       -11.5818409844       -0.1857563017        2.3074066620
 C       -10.6693837640        1.0893973357        2.4118883014
 O        -9.6988404945        1.3106562344        1.7001304834
 C       -11.0052222930        2.1526976943        3.5469276396
 C       -10.1195753712        3.3865410232        3.4051646455
 O       -10.5003305870        4.5319757189        3.1833013991
 C        -8.6020460850        3.0483861377        3.6737421076
 C        -8.0386897586        4.0801518966        4.6748827522
 C        -7.4083712482        5.1885111083        3.9470205636
 O        -7.3139353573        5.2824209568        2.7334147379
 C        -6.6798312958        6.3086663941        4.6697456355
 C        -7.0377897158        7.6834417934        4.1054501782
 O        -7.9593979645        7.8928841540        3.3605504499
 C        -6.3390732880        8.8505208431        4.7566199073
 C        -7.0054899060        6.3938371705        6.1629912460
 C        -5.1634335691        5.9984526999        4.4352876696
 C       -12.5090419019        2.5693629496        3.2455422707
 C       -10.9635224315        1.5986333915        4.9637583067
 C       -14.2832992577        1.4314397992       -1.6042509056
 C       -14.5486034860       -1.0017103016       -0.9799704247
 C        -9.6336652037       -0.4064919319       -6.9510244347
 C        -9.0070626221       -1.5222908371       -4.5830948594
 C        -8.5696813009        5.6822582724       -3.3338824971
 C        -6.6936387834        5.5667324218       -1.6105793810
 C       -13.1107049883        6.1328088441        1.6578159039
 C       -13.8294129247        7.1105894517       -0.5679038222
 H       -11.8725108814        9.3168352594       -0.8185117028
 H       -11.4921730995       10.1717041350        0.6269821842
 H       -13.1709069948        9.6253808035        0.2884800369
 H       -12.2903150207        3.9370454380       -0.4988111744
 H       -11.2669006072        4.5328891350        0.7592159341
 H       -10.4406169688        3.9657834067       -2.0936132772
 H        -9.9559683748        2.9585632563       -0.8431489002
 H        -7.8716830981        3.3457971899       -4.6496883395
 H        -9.3084320287        2.7936476072       -3.9104418117
 H        -8.5893406214        0.8218641341       -3.0974805192
 H        -6.8299244818        1.1116767912       -3.5497746166
 H       -11.5309208298       -1.6432697759       -4.4624929326
 H       -12.3860754265       -0.6551806836       -5.7798719581
 H       -13.9885328554       -0.8463642459       -4.0378383600
 H       -13.3895394480        0.6819712581       -3.9534054215
 H       -10.9221848539       -0.8861472375        0.3256222278
 H       -12.4445917532       -1.5496857116        0.7005868679
 H       -11.0849218931       -0.9858025953        2.9100988604
 H       -12.4919899039       -0.0247063947        2.8936603577
 H        -7.9647053056        3.0486233098        2.7655442276
 H        -8.4479123197        2.0752749687        4.1038850517
 H        -7.2692871068        3.6874900339        5.3694151098
 H        -8.7999939252        4.3116149108        5.4617484776
 H        -5.2409402566        8.9671634548        4.7511286206
 H        -6.5689401065        8.9566212688        5.8166996151
 H        -6.7200260091        9.8094902617        4.4160358321
 H        -6.7586916692        5.5529361869        6.7742591372
 H        -8.1014400892        6.6074930828        6.3258573634
 H        -6.5897412169        7.2786940796        6.6183415156
 H        -5.0287072530        4.9138674967        4.6154222501
 H        -4.4989781085        6.5432400689        5.1681773866
 H        -4.9202508788        6.1561645957        3.3871369921
 H       -12.7075438899        2.8486778875        2.2142880875
 H       -12.6848786493        3.5050219220        3.7781525899
 H       -13.3861174675        1.9503535171        3.5841844994
 H       -11.5985193633        2.2146257075        5.5596525778
 H       -10.0211279729        1.6437555840        5.4868932881
 H       -11.3346730681        0.5721833908        5.1211351467
 H       -13.5483018923        2.1648982444       -1.8320351852
 H       -14.9465123292        1.8237965874       -0.8414841215
 H       -14.8301374144        1.2742826292       -2.5665056444
 H       -14.2300031847       -2.0140919006       -0.7305262171
 H       -15.2170984641       -1.1789796401       -1.8434114572
 H       -15.1455524580       -0.7049977000       -0.1366522856
 H        -8.8276380294       -1.1108467512       -7.2921492719
 H        -9.5498529971        0.5779667922       -7.3556796204
 H       -10.5470604172       -0.8446893640       -7.2251962866
 H        -8.8577772272       -1.1628959239       -3.5338614055
 H        -8.1249350813       -1.9455379082       -5.0461709855
 H        -9.7839558617       -2.1986106020       -4.6283225994
 H        -8.8041696840        6.6977349721       -3.0627814122
 H        -9.4068569286        5.1736431966       -3.7435022889
 H        -7.8218899537        5.7900054979       -4.1553495524
 H        -5.9654265318        5.7019726524       -2.3908052111
 H        -6.2323662324        4.9303592783       -0.7698956117
 H        -6.8266994002        6.4823203952       -1.0414317726
 H       -12.3043949389        6.0336327096        2.3606374582
 H       -13.4883893769        5.0631845526        1.5155283800
 H       -13.9021445459        6.6538289568        2.2273858785
 H       -13.5994822721        7.5979982004       -1.5326138222
 H       -14.5824222016        7.7635196466       -0.0138116865
 H       -14.3315780757        6.1578043906       -0.7321696979
 Na       -9.3837831557        6.1726790436        2.1522617550
