117

 C       -12.3851367247        9.5397785930        0.6731705318
 C       -11.8570460218        8.1149534786        0.8627792891
 O       -10.8057418348        7.9367733580        1.4436567614
 C       -12.7251679980        6.9389099970        0.2666550153
 C       -11.6274419517        6.0520493368       -0.5421613084
 O       -11.2379833025        6.5611863392       -1.5467662904
 C       -11.1458787871        4.7309570335       -0.0562235081
 C        -9.8575643226        4.2320305119       -0.7845885263
 C        -8.6791504584        5.1245023282       -0.8495683731
 O        -8.3850620897        5.8549890400        0.0876241981
 C        -7.7934742138        5.0489046779       -2.0568944477
 C        -7.4582645434        3.4477142745       -2.3899373921
 O        -6.8452273081        2.8114088271       -1.5895753309
 C        -7.8538682279        2.8562555964       -3.7638600307
 C        -8.1527879234        1.3361820786       -3.7666618343
 C        -8.3895796719        0.9054795076       -5.3390318062
 O        -7.9644067502        1.5574771362       -6.2378775093
 C        -9.3717789188       -0.3579552819       -5.5416613782
 C       -10.8226040780        0.1891288839       -5.1861800299
 O       -10.9578642335        1.3728000699       -4.9992390109
 C       -11.9837277606       -0.7198418225       -4.8458356076
 C       -12.9952034369       -0.1922688181       -3.8075958092
 C       -12.6016430898       -0.2382223783       -2.4155896332
 O       -11.6130664878       -0.8452835720       -2.0957993066
 C       -13.5410257133        0.3220208394       -1.2510215421
 C       -12.7112750512        0.7100772306       -0.0144102434
 O       -12.7130967895        1.8009846413        0.4971387578
 C       -11.9231421858       -0.5004159018        0.6379273147
 C       -11.9267470210       -0.2456736765        2.1587814762
 C       -10.9144452332        0.8988735656        2.4341675398
 O        -9.8380057320        0.9111701719        1.8161612543
 C       -11.3206349119        1.9548602448        3.6191513000
 C       -10.3584583361        3.1502313151        3.4491364380
 O       -10.7488581567        4.2635023816        3.0581248720
 C        -8.8010987241        2.9961319828        3.5161044297
 C        -8.1261354097        3.9872618533        4.5358294607
 C        -7.2228803032        5.0617876365        3.9717681206
 O        -7.1210597195        5.2246792787        2.7457786633
 C        -6.5117076382        6.1487791218        4.8480117618
 C        -7.1656882855        7.5241598349        4.4570453501
 O        -7.9828747099        7.6469185139        3.5419066793
 C        -6.4612400496        8.7739632991        5.0704163373
 C        -6.7400201780        5.9126912226        6.3641432499
 C        -5.0369821777        6.1402967902        4.4244905409
 C       -12.8260344568        2.4004575659        3.5521919658
 C       -11.0818669190        1.0643348036        4.9728069932
 C       -14.2765371406        1.6780149237       -1.8234320145
 C       -14.5794103686       -0.7266471815       -0.9397469329
 C        -9.4183762983       -0.6263828944       -7.0621827053
 C        -9.0097707300       -1.5780004838       -4.7108211298
 C        -8.5680264690        5.7252882770       -3.2238433376
 C        -6.4981147751        5.7711781958       -1.8400758303
 C       -13.4076841110        6.2836549796        1.5234006790
 C       -13.8470874908        7.2852534883       -0.6817721631
 H       -12.4400470487        9.6276691573       -0.4222491269
 H       -11.7552245960       10.2523293526        1.0620348107
 H       -13.3651930061        9.6994597727        0.9170967920
 H       -11.9525484274        3.9260994423       -0.0811955606
 H       -10.8388334959        4.7741795207        0.9812670463
 H       -10.1102143660        3.9820442942       -1.7897566807
 H        -9.4969439674        3.2383000770       -0.4436880169
 H        -6.9134534247        2.9514919852       -4.3506442283
 H        -8.6702220850        3.3466524144       -4.2199349392
 H        -9.0431860717        1.0773402801       -3.1861658686
 H        -7.2864080486        0.7113092478       -3.3098617611
 H       -11.5333824846       -1.5922443980       -4.3238142875
 H       -12.5138455054       -0.9737179739       -5.7969620101
 H       -13.9242505346       -0.7443073367       -4.0005152398
 H       -13.2559323367        0.7963086681       -4.0737772867
 H       -10.8815100174       -0.4335460385        0.2504265263
 H       -12.3203575535       -1.4778315034        0.3464963018
 H       -11.5692266102       -1.1854763150        2.6177261370
 H       -12.9128805831       -0.0847279836        2.6193408787
 H        -8.3837339583        3.1463574648        2.5325532574
 H        -8.4585388924        2.0116298566        3.7166622889
 H        -7.6018910536        3.4323118755        5.2686560099
 H        -8.8336184453        4.4690222178        5.1771963096
 H        -5.4570779725        8.6126572414        5.2706152652
 H        -6.8112022703        9.0029166576        6.0392167030
 H        -6.5452513145        9.7739031660        4.5760803454
 H        -6.2351087920        5.0163319241        6.6798946693
 H        -7.7874041240        5.7023689504        6.6822426471
 H        -6.4802461813        6.7540398271        6.9781660964
 H        -4.7430092012        5.2369592140        4.9475213798
 H        -4.4125695547        6.9559204155        4.7716349936
 H        -4.8766697476        6.0302642693        3.3567532354
 H       -13.0184542390        2.9507397511        2.6325267311
 H       -13.2886852284        3.0050441452        4.3580411423
 H       -13.4523798783        1.5358375398        3.3416127058
 H       -10.8451218942        1.5769873096        5.8137400176
 H       -10.4141901672        0.2124439109        5.0218632320
 H       -12.0836782883        0.7018954776        5.2432142598
 H       -13.6268059681        2.3411006500       -2.3621786766
 H       -14.7308530938        2.2640270304       -1.0856016241
 H       -15.1084785891        1.2946054522       -2.4374731199
 H       -14.2050871989       -1.7407082808       -0.7299880512
 H       -15.3068813537       -0.8667345973       -1.7354008879
 H       -15.1363959037       -0.4160810077       -0.0892244908
 H        -8.3288520059       -0.4859321723       -7.3791178483
 H       -10.0621148083        0.0727404281       -7.5628348109
 H        -9.8066457558       -1.5588420993       -7.2841485700
 H        -9.2238567617       -1.2740398326       -3.6839581831
 H        -7.9317640399       -1.7810583685       -4.8159297565
 H        -9.5802253077       -2.3880541979       -5.0297427119
 H        -8.7459653219        6.7611078698       -2.9653136273
 H        -9.5561528904        5.3460092142       -3.3714483668
 H        -8.0330741596        5.6247800364       -4.1705385875
 H        -5.7920194099        5.6289552710       -2.6259132067
 H        -5.9478819493        5.4357325055       -0.9186023197
 H        -6.7056255979        6.8276933209       -1.6645392020
 H       -12.7840219645        5.6271669460        2.1426578999
 H       -14.3905343782        5.6921931257        1.3670887211
 H       -13.7343204471        6.9791867765        2.2723586405
 H       -13.3822776244        7.6677852097       -1.5656589676
 H       -14.4762503541        8.0308314931       -0.1637681183
 H       -14.4669071188        6.4536052306       -0.9252542708
 Na       -9.4911020126        6.3319780555        2.1275450175
