117

 C       -11.8606648145        9.3683765165       -0.0000806633
 C       -11.8491231474        8.0201681414        0.7662496027
 O       -10.9949644403        7.9334546816        1.6277277825
 C       -12.8006198934        6.7467468836        0.4217299793
 C       -11.8509253204        5.9024043072       -0.5735428900
 O       -11.3532278455        6.4804159243       -1.5146705153
 C       -11.4857752149        4.4906812174       -0.2357942721
 C       -10.3765448776        4.0301556049       -1.1785711438
 C        -9.1324682913        4.9951654977       -0.9960446857
 O        -9.0266340804        5.7640009067       -0.0700063285
 C        -8.0383924330        4.9204651035       -2.1156235939
 C        -7.9069975246        3.3729351395       -2.4320865005
 O        -7.4697099424        2.7167470183       -1.5169321126
 C        -8.1820214037        2.8370187326       -3.8064534681
 C        -7.9699895644        1.3115259990       -3.8666547217
 C        -8.2291445765        0.7530043720       -5.2736654213
 O        -7.4703311282        0.8399559151       -6.1866391329
 C        -9.4065561320       -0.3438203721       -5.3663833296
 C       -10.6989154080        0.2812204645       -4.6768571644
 O       -10.8135668248        1.4058523549       -4.2318874208
 C       -12.0170010024       -0.5103981877       -4.8176199354
 C       -12.9908840021       -0.1773114382       -3.7045515347
 C       -12.4713877947       -0.4577443548       -2.2616196728
 O       -11.4449560688       -1.0517824578       -1.9810370656
 C       -13.3961441578        0.0174625818       -1.1022905903
 C       -12.5558262743        0.5179190001        0.1245831921
 O       -12.4969926884        1.6914733646        0.4217522828
 C       -11.9070272915       -0.6036402916        0.9525249930
 C       -11.5422135093       -0.1374274648        2.2883208227
 C       -10.7558138095        1.1555242744        2.3371462923
 O        -9.8275355079        1.2944218213        1.5842503450
 C       -11.0899517175        2.2291581945        3.4685628395
 C        -9.9740139215        3.3748186550        3.5159361885
 O       -10.3364798041        4.5271144819        3.2736815598
 C        -8.5136206039        3.0090908083        3.6818971191
 C        -7.8085024048        4.0017033444        4.6086860345
 C        -7.3290747107        5.2968527503        3.9183646459
 O        -7.2757843656        5.3471401377        2.6728527030
 C        -6.6860681222        6.4263830992        4.7323007024
 C        -7.0345691255        7.8233879046        4.0222235827
 O        -7.9797300425        7.9708596474        3.2494849179
 C        -6.2851835010        9.1577247407        4.2151896129
 C        -7.0519054993        6.3760066305        6.2443894269
 C        -5.1721262893        6.3292881954        4.6666763895
 C       -12.4290014652        2.8886815915        3.1817469822
 C       -11.1710731577        1.4494623598        4.8930671813
 C       -14.2820890077        1.2523661319       -1.5457185936
 C       -14.2924772846       -1.1613831780       -0.7874040956
 C        -9.6885582024       -0.5354344897       -6.8773465341
 C        -9.0634991536       -1.6805165920       -4.7513513695
 C        -8.4524143080        5.8412632642       -3.3235654837
 C        -6.7123815898        5.4475958804       -1.6288849842
 C       -13.2199375152        5.9929463025        1.7174720806
 C       -14.0231127136        7.2796636550       -0.3519601653
 H       -11.4414689967        9.4515146681       -1.0288971246
 H       -11.2156673413       10.0217849825        0.5806391135
 H       -12.8152559502        9.8224481221        0.0274066215
 H       -12.3696543055        3.8692983087       -0.3962126757
 H       -11.1375832530        4.1956045742        0.7693526962
 H       -10.7005009244        3.9081512932       -2.2272540428
 H       -10.0366280120        3.0687338886       -0.9573532585
 H        -7.7621626802        3.4783174057       -4.5660759258
 H        -9.2811793203        3.0626626934       -3.9919563231
 H        -8.6113635825        0.7940204158       -3.1200446917
 H        -6.9312811445        1.0952248221       -3.6970324287
 H       -11.7555302884       -1.5457922565       -4.7941052845
 H       -12.4796041399       -0.2972998650       -5.7546451283
 H       -13.9037352333       -0.7081401013       -3.9066957108
 H       -13.4337459362        0.8512234088       -3.9121390101
 H       -10.9512238599       -0.8570630003        0.4761334709
 H       -12.3858127742       -1.5943990453        0.8844055655
 H       -10.9664632791       -0.9064828049        2.7755947577
 H       -12.4365182542       -0.0353601356        2.9352707093
 H        -8.1042063082        3.1053216230        2.6917600643
 H        -8.4140605804        1.9578367334        4.0430636696
 H        -7.0285913819        3.6051796566        5.2312025330
 H        -8.6010003206        4.1801885580        5.2858094483
 H        -5.2477294238        9.1477526755        4.2168864548
 H        -6.5036171326        9.7032598712        5.1104689238
 H        -6.4665294892        9.8856503312        3.3890096078
 H        -6.7600049028        5.3378752566        6.5543358563
 H        -8.0525845771        6.5464710253        6.5754340536
 H        -6.3797920679        6.9717021677        6.8871853042
 H        -4.7779509258        5.5022727176        5.2400678802
 H        -4.8053846459        7.2050431319        5.1086961412
 H        -4.8639194363        6.1955143939        3.6220946899
 H       -12.3982432754        3.4686735632        2.2537096955
 H       -12.8381045448        3.5593609784        3.9633979314
 H       -13.2018714955        2.1959483240        3.0681994902
 H       -11.0602687923        2.1495512249        5.7304892910
 H       -10.3631250790        0.6802229835        4.9791168953
 H       -12.0956479159        0.9070978935        5.0765205048
 H       -13.8845390700        2.1260594981       -2.0870513877
 H       -14.6397202697        1.4963767181       -0.5812162515
 H       -15.1289490496        0.9672154937       -2.1007639836
 H       -13.7543086157       -2.1095051919       -0.7436184711
 H       -14.9869710253       -1.3059999923       -1.5742012891
 H       -14.8169536816       -1.1561151780        0.1696779296
 H        -8.9765408512       -1.1909070899       -7.3384536486
 H        -9.7697760159        0.4567069347       -7.3529078585
 H       -10.5983100141       -1.1615628423       -6.9241837625
 H        -8.9121002504       -1.5219885793       -3.7427995243
 H        -8.1881165308       -2.0323350649       -5.3058873599
 H        -9.9408349967       -2.3684412158       -4.9141176593
 H        -8.5241402387        6.8969869917       -3.0910069775
 H        -9.3654639462        5.4334911900       -3.7956649904
 H        -7.6894164786        5.8609331057       -4.0466291094
 H        -5.9139295248        5.2024278197       -2.3461182797
 H        -6.4640695556        5.1414401543       -0.6739024079
 H        -6.7012384831        6.5425824136       -1.5250336728
 H       -12.5187993037        5.3022065754        2.2746596751
 H       -14.0705550438        5.3461779951        1.5082605733
 H       -13.5840990747        6.7021901258        2.4465733617
 H       -13.6801566537        7.6875046508       -1.2908427623
 H       -14.5602237526        8.0585809259        0.1049748214
 H       -14.7153549567        6.4571226985       -0.5376185927
 Na       -9.5105728498        6.3120111327        2.0147438380
