117

 C       -11.9514114120        9.4093111798        0.1399395750
 C       -11.8294003591        8.0723944876        0.8329555449
 O       -10.9739193618        7.8670764469        1.6894854640
 C       -12.7357637399        6.8274895397        0.3680019606
 C       -11.8053107007        5.9357545476       -0.5459355896
 O       -11.3941960844        6.5487762836       -1.5336145861
 C       -11.4537519047        4.4750917669       -0.2740662871
 C       -10.2605555648        4.0269863988       -1.1308135251
 C        -9.1058163349        5.0036764767       -1.0532584045
 O        -8.9488156270        5.7438668829       -0.0985417661
 C        -8.0037964191        4.9309811880       -2.1638523937
 C        -7.8240459515        3.4065316071       -2.4227189490
 O        -7.4666820270        2.6256831517       -1.5440357449
 C        -8.3269737964        2.8162224380       -3.7799834351
 C        -7.9665702832        1.3025825707       -3.7858899918
 C        -8.1973995522        0.6788479321       -5.1708658352
 O        -7.5419365431        0.9727973121       -6.1732653316
 C        -9.4404528187       -0.2372987831       -5.3604741976
 C       -10.7448322121        0.3748238755       -4.7895161715
 O       -10.8128432396        1.5259776807       -4.3981016879
 C       -11.9677371722       -0.6737699535       -4.8056793542
 C       -12.9824158595       -0.2752839939       -3.7289436347
 C       -12.4602038062       -0.3764400148       -2.2678029413
 O       -11.4742061003       -1.0411014660       -2.0063008092
 C       -13.5138647303        0.1022482424       -1.1217513755
 C       -12.6489905011        0.4473495416        0.0965018874
 O       -12.5141096397        1.6593112982        0.3778739932
 C       -11.8583481394       -0.5575605021        0.9138044370
 C       -11.5576756797       -0.1453670842        2.3482135722
 C       -10.6924385527        1.1516636366        2.3992755305
 O        -9.7806339360        1.3476828317        1.6674390881
 C       -11.0815820828        2.2125622987        3.4948270753
 C       -10.0704095732        3.2754946747        3.4273688786
 O       -10.4278374216        4.4135653485        3.2697696235
 C        -8.5541361395        3.0643362184        3.6979755715
 C        -7.8895634251        4.1017313270        4.6752014745
 C        -7.3537990911        5.2911056702        3.8570708877
 O        -7.2704380411        5.2782004285        2.6647266708
 C        -6.6959110574        6.4370404164        4.7561177005
 C        -7.1522959852        7.8776731928        4.1104064137
 O        -7.9865971200        7.8696109798        3.2353045106
 C        -6.2597895992        9.0198592537        4.4886346552
 C        -7.0220513977        6.3237662839        6.2819732334
 C        -5.1842229074        6.1319876329        4.5524835632
 C       -12.4633125226        2.7649642001        3.1358076063
 C       -10.9984474656        1.5565358281        4.8730165713
 C       -14.2839899047        1.3897553263       -1.5759291744
 C       -14.4367310443       -1.0813508016       -0.9138250917
 C        -9.6572778752       -0.4077130185       -6.9286870312
 C        -9.0751174747       -1.5782174426       -4.6351349813
 C        -8.5588479498        5.8184738534       -3.3320558910
 C        -6.6733596989        5.5446066326       -1.5964451096
 C       -13.0561342022        6.0951866347        1.6170074456
 C       -13.9509296713        7.1519829685       -0.5517626250
 H       -11.6369386383        9.3471457460       -0.8015516237
 H       -11.2933921823       10.1342363553        0.5967128203
 H       -12.9565409631        9.7765808243        0.1261151552
 H       -12.2661756981        3.7790269091       -0.4831356227
 H       -11.1600808266        4.2156516956        0.7930750492
 H       -10.5457077915        3.8022295932       -2.1434560010
 H        -9.8364168283        3.0652998083       -0.8476310160
 H        -7.8672012724        3.3418879803       -4.5967847305
 H        -9.3821622319        3.0520615139       -3.9551355664
 H        -8.4908084554        0.6832497207       -2.9717465740
 H        -6.8795613123        1.3237158240       -3.6446997058
 H       -11.5549681376       -1.6934190479       -4.6382954301
 H       -12.5276474397       -0.6526044315       -5.7692863458
 H       -13.8485313810       -0.9093871677       -3.7979131897
 H       -13.4464874307        0.6156345835       -4.1088256240
 H       -10.9232776765       -0.9157558565        0.4778700692
 H       -12.4716021997       -1.4911916384        0.8448157922
 H       -11.1081491147       -1.0136587083        2.9202683212
 H       -12.4569806275        0.0297783533        2.9073860778
 H        -8.0039635258        3.0619185425        2.7628224086
 H        -8.3825818201        2.1194438863        4.1682159248
 H        -7.0871618214        3.6939473668        5.2398269447
 H        -8.5951581148        4.2516972910        5.4492962649
 H        -5.2356961254        8.6040460032        4.5440305843
 H        -6.3789910123        9.2838992421        5.5201719584
 H        -6.1597507736        9.9204397585        4.0121653167
 H        -6.7381042287        5.3492335068        6.6979499543
 H        -8.0378477624        6.5613797353        6.6269782923
 H        -6.3959559091        7.0436067055        6.8462168202
 H        -4.9801718462        5.1547340010        5.0013348411
 H        -4.4618635960        6.8445102472        5.0230126045
 H        -5.0613833153        5.9839649962        3.4856767160
 H       -12.4707420026        3.1368143399        2.0955424820
 H       -12.8492707080        3.5599312060        3.7326175337
 H       -13.2929976069        1.9923241058        3.1985098406
 H       -11.2925846813        2.3479083129        5.6569416599
 H       -10.0040357894        1.3035818223        5.0962901259
 H       -11.5739455555        0.7153502409        5.0629023821
 H       -13.7092386851        2.1754411518       -1.9934467483
 H       -14.7300347680        1.6967698741       -0.6114968464
 H       -15.0464848519        1.1892327298       -2.2706781559
 H       -13.9186151133       -2.0028054569       -0.8482478202
 H       -15.1567146823       -1.2674908427       -1.7323205637
 H       -14.9643559756       -1.0597957599        0.0435619511
 H        -9.0085740539       -1.1365698989       -7.2607981878
 H        -9.5471358564        0.5591059008       -7.3845241169
 H       -10.6565969999       -0.8996043251       -7.1309947569
 H        -8.7376937120       -1.3157283517       -3.6272374800
 H        -8.3306547773       -1.9528413989       -5.2406188936
 H        -9.9178465275       -2.2694572974       -4.5944915299
 H        -8.6883621372        6.8317929205       -3.0163341364
 H        -9.4040523518        5.4131099331       -3.8364680255
 H        -7.7551241924        5.9447575238       -4.0610008585
 H        -5.8406658961        5.4272458956       -2.3262740175
 H        -6.4146641854        5.0449234817       -0.6625086568
 H        -6.6828083826        6.5732004312       -1.2432185497
 H       -12.1996430343        5.5409349873        2.0890277801
 H       -13.7609255081        5.2990908767        1.3982182653
 H       -13.5287185656        6.6967186489        2.4999421446
 H       -13.6374840777        7.4555283498       -1.5663675924
 H       -14.6927896036        7.8821282087       -0.2317334044
 H       -14.4349942484        6.1812145740       -0.6087791948
 Na       -9.4852410045        6.2409192558        2.0583623595
