117

 C       -11.9247935552        9.4435371945       -0.3246919996
 C       -11.7663334841        8.0990907696        0.3432844563
 O       -10.6996805208        7.7948519505        0.8082937804
 C       -12.9394832433        7.0326443246        0.3010089812
 C       -12.4110408275        5.8214788499       -0.6504157352
 O       -12.6095271785        5.7057071489       -1.8453533520
 C       -11.7225757970        4.6835778829       -0.0051954325
 C       -10.5481075775        4.1577800177       -0.8955805704
 C        -9.2120496723        4.9567593006       -0.9811325921
 O        -8.8283990812        5.7356672649       -0.1251058934
 C        -8.2849010221        4.6773944298       -2.2411959231
 C        -7.9654075226        3.1446215948       -2.3727878808
 O        -8.1332008355        2.4443430930       -1.3992983013
 C        -7.2937327726        2.5395666525       -3.6570958429
 C        -7.5114191131        1.0253569748       -3.7937408247
 C        -8.1269136697        0.5459244846       -5.1063525507
 O        -7.8580751023        1.0061158509       -6.2215615453
 C        -9.3086871009       -0.5148812220       -5.0311454577
 C       -10.5935002542        0.2138933600       -4.3922719739
 O       -10.4619597344        1.3196893108       -3.8845235778
 C       -11.9088080855       -0.5618075754       -4.4736607222
 C       -12.9257865988       -0.0473155465       -3.3441139486
 C       -12.7640600079       -0.8296520103       -1.9878666532
 O       -11.8641073743       -1.6586212800       -1.9296627812
 C       -13.6352205865       -0.5315695241       -0.7334498595
 C       -12.8186478122        0.2808947937        0.2910253219
 O       -13.1396344718        1.3802020225        0.5884645112
 C       -11.3986517647       -0.3144793150        0.7912443228
 C       -10.9402414148        0.0255530431        2.2716021739
 C       -10.4195559432        1.3933235472        2.3544674922
 O        -9.7436454715        1.9867442802        1.5190918119
 C       -10.6934101586        2.2396388821        3.7854771816
 C        -9.7492500154        3.4449920690        3.6384247279
 O       -10.2332632109        4.5494692240        3.4104803431
 C        -8.1840475633        3.3591746607        3.7496096273
 C        -7.7145908037        4.6534478100        4.5172625248
 C        -7.1890945500        5.7265828778        3.5750590478
 O        -6.9852870096        5.5064871151        2.3966086108
 C        -6.8195363124        7.1104119667        4.2985095602
 C        -7.0795253528        8.2656195128        3.2705496387
 O        -7.9648771169        8.2174562355        2.4675547254
 C        -5.9888211732        9.3651126582        3.2267100674
 C        -7.7341331579        7.3590794006        5.5547023843
 C        -5.3828898972        7.0024795251        4.7949364463
 C       -12.1601517738        2.6196666785        3.9476003961
 C       -10.2022140614        1.2491169143        4.9384674382
 C       -14.9629376115        0.1679927603       -1.0512929847
 C       -13.9816183451       -1.9797499789       -0.2142032778
 C        -9.6113505631       -0.9019639738       -6.4745296708
 C        -8.8233357636       -1.7398151777       -4.1579395665
 C        -8.9119576474        5.3540811616       -3.5255425655
 C        -6.9005296987        5.3220018109       -1.9331994339
 C       -13.1968993685        6.5802290065        1.8256965377
 C       -14.2454449034        7.6116997316       -0.2762856657
 H       -10.9350734589        9.7017142690       -0.8831273184
 H       -12.1629820809       10.2734113281        0.3621866764
 H       -12.7136398694        9.5015598096       -1.1473927764
 H       -12.4544852108        3.8999781617       -0.0118167300
 H       -11.3540139781        4.8328769420        1.0130296639
 H       -10.9926632473        4.0768993756       -1.9300264141
 H       -10.2086370821        3.1868709414       -0.5179531998
 H        -6.2155270330        2.7972631180       -3.6526882892
 H        -7.8006205035        3.0971200911       -4.4987655358
 H        -8.2988283429        0.7519697779       -3.0657290453
 H        -6.7124607422        0.4117173556       -3.4627737050
 H       -11.8799976758       -1.6379233545       -4.5412795807
 H       -12.3217811551       -0.2497013444       -5.4310233795
 H       -13.8769318531       -0.0971409499       -3.8424197990
 H       -12.7238802829        1.0607897774       -3.1504193259
 H       -10.6523092746        0.1758020926        0.1792423982
 H       -11.2876919381       -1.4052641566        0.6676747033
 H       -10.0814002187       -0.6328748689        2.4471739801
 H       -11.7721320386       -0.2323543770        2.9237469398
 H        -7.6154489150        3.4492539902        2.7866147319
 H        -7.9321535482        2.4558088691        4.3594856375
 H        -6.7697336734        4.4406793343        5.1167684172
 H        -8.4763085482        4.9970727630        5.2518861734
 H        -4.9848846042        8.9970577166        3.3110511451
 H        -5.9552366049       10.0228071763        4.1209296686
 H        -5.9633943948       10.1069882589        2.3869969865
 H        -7.5733328765        6.4793259927        6.2056651987
 H        -8.7563702708        7.4918857173        5.2820398618
 H        -7.4416759718        8.2874789494        6.0597559175
 H        -5.5164544663        6.3325559741        5.6407420612
 H        -4.9355607013        7.9091506614        5.1179049626
 H        -4.6953426027        6.4996461282        4.0760375096
 H       -12.5458113415        3.2443813215        3.1361662287
 H       -12.2554777752        3.1812558096        4.9166673481
 H       -12.7767841648        1.7795917517        3.9713248232
 H       -10.0325695350        1.7506269945        5.8297615730
 H        -9.1832976722        0.9268260503        4.5434067802
 H       -10.9464863738        0.4073836063        4.9336833411
 H       -14.8335476020        1.1125494945       -1.6019645306
 H       -15.5630171871        0.4069746304       -0.2085014717
 H       -15.4908149902       -0.4987525364       -1.6888153409
 H       -13.1986029848       -2.7238988292       -0.3894699656
 H       -14.8189608288       -2.3699432936       -0.7270865063
 H       -14.1845158652       -1.9202594096        0.8520593133
 H        -8.6601611078       -1.3813462058       -6.8695928350
 H        -9.9285192027       -0.0514857549       -7.1246524679
 H       -10.3985382446       -1.6401623107       -6.6299472838
 H        -8.7908033861       -1.4852593570       -3.1353270931
 H        -7.8086962122       -2.0666364174       -4.4983802726
 H        -9.4590208968       -2.6484387905       -4.3444182624
 H        -9.2746537451        6.3353715758       -3.1864135620
 H        -9.8036888479        4.8353692957       -3.9460972846
 H        -8.2080579184        5.5334901302       -4.2957781054
 H        -6.2428480268        5.3993713147       -2.7976864895
 H        -6.3177873065        4.9107430152       -1.1417524611
 H        -7.1646442399        6.3288508018       -1.6172366394
 H       -12.2256327361        6.6235187593        2.3382511734
 H       -13.7799584896        5.6577457047        1.8608728875
 H       -13.7661724716        7.3056126684        2.2878467718
 H       -14.0606161449        8.0520115347       -1.2397725762
 H       -14.6600062384        8.3786016646        0.3089817947
 H       -15.0569996689        6.8984689287       -0.4501995074
 Na       -9.3384124496        6.4550413072        1.9637414294
