117

 C       -12.1192085490        9.3907652668       -0.5537885331
 C       -11.8116670911        8.0804542681        0.2109548702
 O       -10.6862769864        7.9165184407        0.6641596406
 C       -12.8666937435        6.9171475800        0.2636323393
 C       -12.3606871657        5.8340522010       -0.7267860869
 O       -12.6727750513        5.8431360187       -1.8812437464
 C       -11.5495317856        4.6481446313       -0.0884226292
 C       -10.5199810982        3.9630429659       -0.9242335894
 C        -9.2592459159        4.8240638685       -0.9816538710
 O        -9.0596092669        5.6927365539       -0.1607891705
 C        -8.3238196294        4.6829925418       -2.2203297723
 C        -8.0316433986        3.1122977460       -2.3417511787
 O        -8.4209750921        2.3505775825       -1.4833498190
 C        -7.2701818973        2.6584501369       -3.5968653380
 C        -7.4900341106        1.1167416368       -3.6726252819
 C        -8.1651837487        0.6470376169       -5.0569414196
 O        -7.7434563615        1.0585662470       -6.0658791084
 C        -9.3358755284       -0.4919988361       -4.9187671141
 C       -10.6253149620        0.1877346906       -4.2826299084
 O       -10.6111188789        1.3254869452       -3.8616089321
 C       -12.0079077691       -0.5401553569       -4.4075897082
 C       -12.9591315058       -0.1538404485       -3.3042662346
 C       -12.7497569593       -0.9610908160       -2.0958995761
 O       -11.9967891095       -1.9098340063       -2.0588704641
 C       -13.5962602917       -0.6646109079       -0.7150961798
 C       -12.6974983525        0.1488236095        0.2844027187
 O       -13.1216488818        1.2746074770        0.6590489871
 C       -11.3983721168       -0.4388750515        0.7304834498
 C       -10.9913638134        0.0430019150        2.1737530934
 C       -10.4319607757        1.5046100446        2.3361662285
 O       -10.0075085755        2.0865568473        1.3546082297
 C       -10.5038884054        2.2028161705        3.8451902128
 C        -9.6439568709        3.5030895453        3.6473589479
 O       -10.2213280905        4.5403326096        3.3652710521
 C        -8.1780796372        3.5238519722        3.8534546669
 C        -7.6614671592        4.7033090911        4.6635845600
 C        -7.0912041323        5.8207518582        3.6892404226
 O        -6.7134950706        5.5010756349        2.5735167095
 C        -6.7609008131        7.2016419628        4.2381369513
 C        -6.8591209607        8.3037303017        3.1705045629
 O        -7.8782131375        8.2770778002        2.4406707152
 C        -5.9994217172        9.5323781768        3.1440999247
 C        -7.8327718267        7.6967537575        5.2928011923
 C        -5.3530736181        7.0233130116        4.8523933601
 C       -12.0074954941        2.6178502667        4.0133508683
 C        -9.9939183381        1.3200508264        5.0339517203
 C       -14.8366516677        0.1200588712       -1.0187178269
 C       -13.9703727743       -1.9834063426       -0.0529076207
 C        -9.7251228676       -1.1120138436       -6.3400920137
 C        -8.8349463132       -1.6089511177       -4.0321453867
 C        -9.0860198176        5.2201597544       -3.4746147423
 C        -6.9823797798        5.4400702580       -1.9800015283
 C       -13.0768561581        6.4535788202        1.7430138271
 C       -14.2386600689        7.4671648643       -0.3235223279
 H       -11.3878789426       10.1439130101       -0.3898937575
 H       -13.0930216858        9.8015897997       -0.2896520772
 H       -12.1298958121        9.2860912191       -1.6081234966
 H       -12.3337700728        3.9021509121        0.1911764324
 H       -10.9833899684        4.9369080982        0.7939597448
 H       -10.9193577938        3.6736662634       -1.8621232057
 H       -10.1256843716        3.0903615105       -0.3431805264
 H        -6.2445165305        2.8783624421       -3.3358464624
 H        -7.6179935200        3.2106193246       -4.4256729112
 H        -7.9698597862        0.8133318176       -2.7293934352
 H        -6.4833105208        0.5750112635       -3.6370596394
 H       -11.7844981882       -1.6523564293       -4.3379315979
 H       -12.5601302144       -0.3874712875       -5.3740285529
 H       -14.0230512609       -0.3556817123       -3.6226523505
 H       -12.7986076733        0.8715041553       -3.1971125579
 H       -10.4779935958       -0.1184951721        0.2023763456
 H       -11.4547711074       -1.5199299333        0.6948395903
 H       -10.3043888002       -0.7881060449        2.4836866372
 H       -11.9032279929       -0.0057450255        2.8135657017
 H        -7.8757765467        3.4596776941        2.7918870054
 H        -7.8546517694        2.6541583136        4.3926108087
 H        -6.9316894409        4.3558050720        5.3885169610
 H        -8.4916214147        5.0677512441        5.2889845381
 H        -5.0172338924        9.4138089641        2.6352556866
 H        -5.5964880287        9.8127008067        4.1076414075
 H        -6.4173372121       10.4486325258        2.7408510774
 H        -7.5856520577        7.1945252948        6.2051414551
 H        -8.8679191238        7.5218148817        4.9382163220
 H        -7.7476279931        8.7696645772        5.4501627645
 H        -5.1828401044        6.1108771856        5.3907395471
 H        -5.0709021519        7.8694892495        5.5200079152
 H        -4.7360669302        6.9864679823        3.9908459456
 H       -12.2711124912        3.1307869415        3.0903928886
 H       -12.1492691097        3.2081670462        4.8589133041
 H       -12.6926948085        1.7310911363        4.0452086773
 H       -10.3896253483        1.8905881818        5.9449596217
 H        -8.9557735310        1.2996318775        5.0663323162
 H       -10.4217904146        0.3852021879        4.8822356682
 H       -14.5814837841        1.1248306930       -1.3376657076
 H       -15.4997224284        0.2124939088       -0.1084364952
 H       -15.4319737075       -0.3198161856       -1.8472891083
 H       -13.0759522838       -2.5159049667        0.1645902465
 H       -14.3872874690       -2.6178652210       -0.8652029681
 H       -14.5933072158       -1.9134392009        0.8281027390
 H        -8.9240380863       -1.5984703238       -6.7585094524
 H       -10.1387685590       -0.3758540550       -6.9956934346
 H       -10.5187630616       -1.8904170407       -6.3285531475
 H        -8.2310043107       -1.2092661194       -3.1626447888
 H        -8.1751115677       -2.2029071584       -4.6392732379
 H        -9.6044038541       -2.2806194609       -3.6696963726
 H        -9.2545161278        6.3030947548       -3.3866314912
 H       -10.0110600106        4.6833209820       -3.5922889858
 H        -8.4719736424        5.1393724359       -4.4289294986
 H        -6.3575881451        5.4594537713       -2.8850980094
 H        -6.4278649355        4.9715637383       -1.1688385366
 H        -7.1519919729        6.4373028696       -1.5930542855
 H       -12.1122268788        6.0591744729        1.9834562702
 H       -13.8870449306        5.7901653036        1.7277143349
 H       -13.2640908303        7.3172263435        2.4609014810
 H       -14.2107484812        7.5290973638       -1.4063877691
 H       -14.6569883798        8.4237781556        0.0207138559
 H       -14.9975399231        6.7584665362       -0.1098353954
 Na       -9.2924525266        6.5409850407        1.9517294005
