117

 C       -12.2104678843        8.8805658969       -0.9943905597
 C       -11.8347976958        7.9381747586        0.1300988868
 O       -10.9798810128        8.2039175516        0.9499360160
 C       -12.9853880730        6.8754464209        0.3278635295
 C       -12.3642413085        5.8286454356       -0.5871238662
 O       -12.2573209268        6.2241720782       -1.7539910794
 C       -11.7031212894        4.6200348318       -0.0536675870
 C       -10.7680571021        3.9162941801       -1.1241141320
 C        -9.4058480373        4.6724282876       -1.1651495353
 O        -9.0054629872        5.4359930724       -0.2607392880
 C        -8.4667117154        4.4317978963       -2.4322985829
 C        -7.9994521706        2.8929442168       -2.4822249934
 O        -8.3258117260        2.1950405829       -1.5470053597
 C        -7.0560743895        2.4209690457       -3.6007850880
 C        -7.2480583071        0.8374226582       -3.7857162941
 C        -8.2999864963        0.5621416921       -4.9105588428
 O        -8.2223777277        1.2612328363       -5.9533316918
 C        -9.3098182024       -0.5787856923       -4.7098096245
 C       -10.6073713833        0.1699748049       -4.1335431018
 O       -10.5995749995        1.2455358793       -3.5808777675
 C       -11.9258943515       -0.5685749043       -4.2684566487
 C       -12.9371532430       -0.1697891838       -3.1263167830
 C       -12.7752216360       -1.0555674660       -1.7917152309
 O       -11.9031317946       -1.9252325665       -1.8518881430
 C       -13.5833738168       -0.7464711197       -0.5292143554
 C       -12.6217941290        0.1338380005        0.3923087132
 O       -12.8803720018        1.2382642361        0.6753679178
 C       -11.3211866149       -0.4973257737        0.9143210281
 C       -10.8188850421        0.0642266144        2.2663804760
 C       -10.3423440695        1.5376277375        2.2985990224
 O       -10.0476367139        2.1672257656        1.3190974282
 C       -10.3460650363        2.4133497068        3.6538089148
 C        -9.5417428234        3.6981140252        3.3957536180
 O        -9.9850698621        4.7776042625        3.0142269733
 C        -8.0621091969        3.6755509195        3.8779507318
 C        -7.8438872476        4.9169409921        4.6236165453
 C        -7.1623742337        6.0079428667        3.7460926436
 O        -6.8172936021        5.7274879588        2.6214148162
 C        -6.8021329441        7.4158765804        4.2510486461
 C        -6.9607467661        8.3982471617        2.9869271681
 O        -7.8003658599        8.2638957041        2.1610890117
 C        -5.9563150178        9.5555692949        2.8285989010
 C        -7.8562446787        8.0165478494        5.2382541103
 C        -5.4347871516        7.3819810983        4.8572470457
 C       -11.8354415346        2.7805272064        4.0292629350
 C        -9.7650233660        1.3917508775        4.9197904187
 C       -14.9073336632       -0.0641251532       -0.8593555740
 C       -13.8181285116       -2.1267524334        0.1907687730
 C        -9.6581063889       -1.2410892771       -6.0266834811
 C        -8.7628372836       -1.5937607223       -3.6819436771
 C        -9.3664311091        4.8228206154       -3.6443016302
 C        -7.2621264517        5.3577585358       -2.2343823708
 C       -13.1556270181        6.4123623144        1.8139751435
 C       -14.3851985569        7.2724501514       -0.1884925596
 H       -11.4568409171        9.5293078685       -1.3162024391
 H       -13.0255009321        9.4973244964       -0.6559120870
 H       -12.5261051896        8.4012323368       -1.8930923618
 H       -12.4350050781        3.9283890704        0.3747920275
 H       -11.1000347156        4.9271404333        0.8523520591
 H       -11.2124983255        3.9346361081       -2.0996550247
 H       -10.6498910902        2.8983547208       -0.7542794731
 H        -6.1198292030        2.6910063398       -3.1818638441
 H        -7.2900261590        2.9435242800       -4.5053502153
 H        -7.6905324965        0.4731004060       -2.7824458205
 H        -6.3108125816        0.3552699903       -3.9984539521
 H       -11.9540334735       -1.6593365408       -4.2619401490
 H       -12.3778362550       -0.1471847244       -5.2272437648
 H       -13.8986787581       -0.2268240058       -3.5870731084
 H       -12.6004726862        0.8148682476       -2.7953574412
 H       -10.6082814613       -0.1554482013        0.1646391021
 H       -11.2600922493       -1.6124302288        0.9485655487
 H        -9.9383686471       -0.5727082236        2.6558272001
 H       -11.5695557106       -0.1997293141        3.0145012827
 H        -7.3468768169        3.7465284702        3.0459155126
 H        -7.7376732228        2.7753988800        4.3535265956
 H        -7.2279787940        4.9137217489        5.5022577970
 H        -8.7366417451        5.3618730563        5.0375084310
 H        -5.0604577412        9.4653438037        2.2582562540
 H        -5.5527988120        9.8747327299        3.8136768367
 H        -6.4141142933       10.5093931560        2.4681558921
 H        -7.6368348571        7.5416666754        6.2125681098
 H        -8.8331864470        7.7930447847        4.9206722959
 H        -7.6338780201        9.0631294601        5.4586558308
 H        -5.5321976737        6.7725974244        5.7279284679
 H        -5.0881867428        8.3175116893        5.1744754913
 H        -4.7027124934        6.8343302228        4.2446906521
 H       -12.2639635293        3.5982031977        3.4413963759
 H       -11.8217048689        3.0791472276        5.0910272701
 H       -12.4139039420        1.9197493606        3.9821566371
 H        -9.8780885140        1.8685856635        5.8050005924
 H        -8.7674359863        0.9722744930        4.6636764682
 H       -10.4853994803        0.5664747415        4.8816282443
 H       -14.7039984666        1.0128652066       -1.1293150870
 H       -15.4797588564       -0.1204817181        0.0689622750
 H       -15.4888697080       -0.4917179164       -1.6567979333
 H       -12.9738096383       -2.7593445798       -0.0768282281
 H       -14.7392469098       -2.4531510487       -0.2271501023
 H       -13.9594001395       -2.0843030321        1.2655935153
 H        -8.8749373267       -1.9335884021       -6.4047568262
 H        -9.7697176097       -0.6133578884       -6.8790739318
 H       -10.5283419491       -1.8226522204       -5.9380167633
 H        -8.7853996083       -1.2677693221       -2.6875359366
 H        -7.7031959953       -1.7702204054       -3.8893243746
 H        -9.3106832312       -2.5862286172       -3.6284779234
 H        -9.9304523413        5.7382071435       -3.3835105865
 H       -10.0386567195        3.9579151463       -3.9042738281
 H        -8.7855023330        5.0910763767       -4.5233156204
 H        -6.7048224962        5.4859527000       -3.1608076725
 H        -6.6530342240        4.9407565657       -1.4598366590
 H        -7.6010101035        6.3498847446       -1.9388112939
 H       -12.2051565015        6.0794584821        2.2723244579
 H       -13.8180676536        5.5351822121        1.7763178950
 H       -13.6528741214        7.2275805156        2.2382541512
 H       -14.4699851674        7.3640222982       -1.2538647248
 H       -14.6967266808        8.1939416429        0.1927695751
 H       -15.0838876921        6.5093874950        0.1419783672
 Na       -9.3532570386        6.7336252764        1.5516005088
