117

 C       -12.1229186369        9.1675536705       -0.6328062665
 C       -11.8768614072        8.0449220852        0.3122711848
 O       -11.0263773694        8.1206810664        1.1848021718
 C       -12.8476231965        6.7804925330        0.3247626840
 C       -12.3941491184        5.7084002527       -0.7040951502
 O       -12.4272389798        6.0479508519       -1.8823139602
 C       -11.7620199662        4.3970336747       -0.1393988313
 C       -10.7182548070        3.7816247581       -1.0466107488
 C        -9.4161144049        4.6301801122       -1.3116169425
 O        -9.0049879386        5.4637792567       -0.5001566243
 C        -8.5136112232        4.2997849868       -2.5676833663
 C        -7.9320068846        2.8476185997       -2.4083321174
 O        -8.2122369562        2.1154094328       -1.5028990216
 C        -6.9539180739        2.3974671224       -3.5345757008
 C        -7.0500185273        0.8697162958       -3.9895355447
 C        -8.3419659899        0.5471594724       -4.8996128223
 O        -8.6323517650        1.3523012783       -5.8161944091
 C        -9.2941288220       -0.6498807860       -4.6117205263
 C       -10.5858491510        0.0440007339       -3.9679604679
 O       -10.4673723450        1.0796739911       -3.3689019943
 C       -11.9599088783       -0.5927927466       -4.1485325212
 C       -12.9597776295       -0.1229231120       -2.9921242099
 C       -12.5489862242       -0.9510593573       -1.6622505426
 O       -11.5724698959       -1.6434166649       -1.4781935528
 C       -13.5330540852       -0.7582366532       -0.3417241766
 C       -12.6079391133        0.2609592046        0.5563326139
 O       -12.9191458758        1.3956359853        0.7160402644
 C       -11.2713587786       -0.3778968715        0.9638171811
 C       -10.8512344460        0.1912742765        2.3139046533
 C       -10.2841934045        1.5891731770        2.2969155746
 O        -9.8304939570        2.0678158231        1.2932915460
 C       -10.3631422434        2.3951578061        3.5765141199
 C        -9.5808365880        3.7383647440        3.4599411387
 O       -10.0086793059        4.6220345550        2.7371877391
 C        -8.1918117098        3.6956368989        4.0424803819
 C        -7.7228978309        5.0884658093        4.4645649370
 C        -7.3120766290        6.1526876682        3.5031944897
 O        -7.0718598278        5.8399392073        2.3820515867
 C        -6.9384008130        7.6300769125        4.0643964699
 C        -7.0207942680        8.6990920413        2.7956569193
 O        -7.9543499885        8.5935369840        2.0526505241
 C        -6.0253862643        9.7911790712        2.7437710379
 C        -7.9703555660        8.0362341831        5.1019696272
 C        -5.4782266575        7.5366242959        4.6548117641
 C       -11.8608737183        2.8653441448        3.7701576817
 C        -9.9372655130        1.3840920850        4.8030192728
 C       -14.8865201785       -0.0260890124       -0.4614033376
 C       -13.6165091479       -2.1661889641        0.3294072339
 C        -9.5699432003       -1.3245351120       -5.9372513669
 C        -8.8534766206       -1.7151447113       -3.5994923455
 C        -9.3347874387        4.2185808207       -3.8558062694
 C        -7.3417192388        5.2037461098       -2.6414829256
 C       -13.0355251075        6.4153225557        1.8399724101
 C       -14.3220140299        7.1918840874       -0.1485145790
 H       -11.1889370815        9.7798621359       -0.7929046842
 H       -12.9464548628        9.8597296916       -0.3164243793
 H       -12.3979752092        8.7776869928       -1.6888003773
 H       -12.5334377744        3.6917258592        0.1377128047
 H       -11.3582448238        4.6544974348        0.8354672486
 H       -11.2455346116        3.4653932830       -1.9264175604
 H       -10.2744436703        2.8911198849       -0.4538831445
 H        -5.9235703969        2.6555270963       -3.1432036752
 H        -7.1772450639        3.0703145548       -4.3568245910
 H        -7.1304613365        0.3044830910       -3.0490436965
 H        -6.1544568883        0.6265970929       -4.5495055715
 H       -11.9143129398       -1.6780723100       -4.1903861928
 H       -12.4322347962       -0.2169237444       -5.0603559463
 H       -14.0342103072       -0.3722465428       -3.2352816406
 H       -12.7503197459        0.9093427285       -2.8503267964
 H       -10.4309522562       -0.0730119988        0.3391691765
 H       -11.2947078736       -1.4533728499        0.9495086345
 H       -10.1508189675       -0.5345033546        2.7766947823
 H       -11.6319257984        0.1857456649        3.0751850811
 H        -7.6140911657        3.1926408502        3.2101006976
 H        -7.9949339512        3.0045866618        4.8435379551
 H        -6.7923380128        5.0534439763        5.0991976085
 H        -8.4876077743        5.5351356647        5.1979122432
 H        -5.0429004807        9.5244340003        3.0382499462
 H        -6.2430743654       10.6654169899        3.3517162834
 H        -5.7825942322       10.0892987193        1.6941238721
 H        -8.1438971078        7.2688492469        5.8753484879
 H        -8.8771828673        8.0917124349        4.5238540607
 H        -7.7303424522        9.0066910813        5.5741323385
 H        -5.3686654199        6.6948265093        5.3418679429
 H        -5.1640797577        8.4920229295        5.0937809948
 H        -4.7370149168        7.3527260338        3.8260615184
 H       -12.3352655265        3.3895219684        2.8849388911
 H       -11.8712011625        3.5591433127        4.6025609935
 H       -12.4068994669        1.9996856295        4.1139532758
 H        -9.5998595432        1.9176901929        5.6701067775
 H        -9.1531149743        0.7452952130        4.3148625744
 H       -10.8387488189        0.8266789207        5.0934695525
 H       -14.7899514113        0.9684107080       -0.8656689685
 H       -15.3249531639        0.0309684446        0.5616555459
 H       -15.5734575155       -0.5731656463       -1.0399127918
 H       -12.6141537874       -2.5129285685        0.4391471059
 H       -14.2477885056       -2.8033095884       -0.3222543304
 H       -14.1059335850       -2.1010771970        1.3103065145
 H        -8.6621021826       -1.5532209572       -6.4777817488
 H        -9.9895241882       -0.6376867694       -6.6890859585
 H       -10.2682128812       -2.1986546783       -5.8782381172
 H        -8.7354297461       -1.3984520695       -2.5960863246
 H        -7.9382440745       -2.2147958607       -3.8630816916
 H        -9.6258337166       -2.5645914630       -3.5414049875
 H        -9.9027601999        5.1202060890       -3.9617408391
 H       -10.0385295508        3.4038848750       -3.7752764579
 H        -8.7071514447        4.0215463107       -4.7136989324
 H        -6.6162202717        4.9278146024       -3.4590839829
 H        -6.8631193597        5.1923622390       -1.7127088679
 H        -7.7119100864        6.2001518462       -2.9240069422
 H       -12.0290451463        6.3159224594        2.2547239410
 H       -13.4554636168        5.4703127492        1.9236580145
 H       -13.6247214811        7.2321514782        2.2149934080
 H       -14.4031378550        7.4185444380       -1.2405635786
 H       -14.7984657583        8.0112642014        0.4161379516
 H       -14.9234690743        6.2740926124       -0.0265012429
 Na       -9.3324373737        6.4932084670        1.6279083352
