117

 C       -12.4399463444        9.2036480677       -0.0811004548
 C       -12.0475386889        7.8586851889        0.4207787877
 O       -10.9601257595        7.7801775494        1.0116144091
 C       -12.9607626677        6.5495976097        0.3856055214
 C       -12.1354826165        5.6482255867       -0.6553529069
 O       -12.1618175471        6.0002562470       -1.8101682847
 C       -11.5067025809        4.4013529272       -0.1236334952
 C       -10.4915705119        3.7482713138       -1.1023330788
 C        -9.3082014191        4.6222569394       -1.5833953869
 O        -8.8543034695        5.5343945336       -0.9720434869
 C        -8.5732993678        4.1660944271       -2.9334032544
 C        -7.8625317286        2.7992713575       -2.4909328450
 O        -8.0445312220        2.2880013721       -1.4046783340
 C        -6.7437085629        2.1926628410       -3.4302124156
 C        -7.1162197688        0.7019906139       -3.7181801013
 C        -8.3712887785        0.6010957749       -4.6418022821
 O        -8.5713472327        1.4583284428       -5.4598166031
 C        -9.4173438546       -0.5947386590       -4.4298107376
 C       -10.7969693250       -0.1040977352       -3.7166948551
 O       -10.7332914546        0.7975322035       -2.9184611445
 C       -12.1770029500       -0.7362657694       -4.0481252627
 C       -13.1966762306       -0.5261890201       -2.9719584395
 C       -12.5538294464       -0.9601187833       -1.6132701432
 O       -11.6969395770       -1.7845387470       -1.5579408385
 C       -13.3014865960       -0.6179899689       -0.1699577788
 C       -12.4223052905        0.1907898490        0.8495751003
 O       -12.7627591333        1.2899178388        1.3037242764
 C       -10.9777157661       -0.2921907749        1.2529913262
 C       -10.6293404659        0.2015265445        2.6505653867
 C        -9.9186549984        1.7426359170        2.6688423640
 O        -9.0161309880        1.9813491579        1.8984426711
 C       -10.4688154498        2.7776277201        3.7261442719
 C        -9.6840544160        4.0493241686        3.4844196696
 O       -10.1905562983        5.0765605745        3.0478891306
 C        -8.2075944614        3.9416853167        3.7493364208
 C        -7.6621039018        5.2205999978        4.3742589450
 C        -7.1650822581        6.2518626025        3.2815857272
 O        -6.9021437011        5.8778310811        2.1712648481
 C        -7.0825764851        7.7261195776        3.7253089076
 C        -7.3281508035        8.6147220951        2.3896163975
 O        -7.9934313916        8.1692757310        1.4778973058
 C        -6.8597857848        9.9710744436        2.3151451083
 C        -8.0645847873        8.1669755549        4.7811922081
 C        -5.6954407278        7.9457034479        4.2105293342
 C       -12.0145796928        2.9821007484        3.6205179323
 C       -10.2712991299        2.0857089448        5.2183032625
 C       -14.6009363213        0.1628665650       -0.4127819981
 C       -13.6275434859       -2.0595256801        0.4197078097
 C        -9.5785680027       -1.1035267967       -5.9301021420
 C        -8.9217822831       -1.6174528786       -3.5044339589
 C        -9.5379254416        3.9392935741       -4.1049027866
 C        -7.6577454463        5.2468141006       -3.4684614595
 C       -13.1311428887        6.0840171933        1.9295387227
 C       -14.2719505261        6.8650380767       -0.3604816790
 H       -11.5820848799        9.9363735636        0.1272768336
 H       -13.2701820403        9.5857262197        0.4992921113
 H       -12.8665353143        9.2472832469       -1.1256052092
 H       -12.2704774695        3.6629955386        0.1573079917
 H       -11.0823746056        4.7023457409        0.8376045122
 H       -11.0078506831        3.3633247953       -2.0274771390
 H       -10.1382493428        2.9302721190       -0.5178005244
 H        -5.7908308163        2.4057532369       -3.0503334093
 H        -6.6750816226        2.7578646267       -4.3509242657
 H        -7.2086450192        0.1286288626       -2.8118408229
 H        -6.2754931974        0.2221041553       -4.3270242016
 H       -12.1169537752       -1.8665623507       -4.1872183652
 H       -12.5797352456       -0.4582647419       -5.0515879584
 H       -14.1035035295       -1.0370774217       -3.1175244044
 H       -13.4896771055        0.5216447297       -2.8758152923
 H       -10.1547344503       -0.0097063699        0.5843396061
 H       -10.9770037545       -1.3728615241        1.2771860485
 H        -9.8507543678       -0.4714839092        3.0662349232
 H       -11.4835715550        0.2351037209        3.4208365903
 H        -7.6790648700        3.6109388452        2.8629754017
 H        -8.0142982381        3.0742085457        4.4380187156
 H        -6.8228178103        5.0076989553        5.0898198052
 H        -8.5608121948        5.6859743545        4.7868257650
 H        -5.8683085543       10.1851271047        1.8155352398
 H        -6.7011119838       10.3897146149        3.3099064223
 H        -7.5983305545       10.6446342602        1.7887091123
 H        -7.9792888592        7.4732966645        5.6006506228
 H        -9.1178269951        8.1994893545        4.3959761300
 H        -7.8623003480        9.1804378113        5.0744076581
 H        -5.5082890212        7.3736546986        5.1361565038
 H        -5.4845635314        8.9997940889        4.5040320297
 H        -4.9816803182        7.7089160841        3.4637537365
 H       -12.3252340087        3.0701444243        2.5867072620
 H       -12.3007390332        3.8573989230        4.1669099476
 H       -12.5379532820        2.0778848998        4.0450698479
 H       -10.3784996808        2.8990212889        6.0379595932
 H        -9.3850758881        1.5504410480        5.4754203114
 H       -11.1134455756        1.4193742016        5.1431343405
 H       -14.3667576222        1.0654776395       -0.8847571742
 H       -15.0490164260        0.4391937854        0.5246893361
 H       -15.3112770070       -0.4281917836       -0.9944417042
 H       -12.7477565589       -2.6693040724        0.4104507424
 H       -14.2105102491       -2.5361316891       -0.3624836819
 H       -14.1861717507       -1.9512999689        1.3319205474
 H        -8.6412996036       -1.3873753158       -6.3094352035
 H       -10.0977077436       -0.4056933791       -6.6133420906
 H       -10.1333480807       -2.0922988474       -6.0152885297
 H        -8.6891600885       -1.2280139276       -2.4699590449
 H        -7.9827314635       -2.0451264698       -3.8815311123
 H        -9.5141439180       -2.4734404986       -3.3380844634
 H       -10.1779519747        4.8083702805       -4.1998847376
 H       -10.1559158582        3.1056307018       -3.8999880398
 H        -9.0091977304        3.7547346377       -5.0552218005
 H        -7.3391414176        4.9861977009       -4.4597791113
 H        -6.7736941233        5.3789952804       -2.8486664984
 H        -8.2597984496        6.1271024216       -3.4224627273
 H       -12.2049426554        6.1409459528        2.4290717013
 H       -13.6074315726        5.1591028857        1.9052514516
 H       -13.7874838491        6.7754006132        2.4779233864
 H       -13.9711109115        7.2433766983       -1.3433210660
 H       -15.0046153490        7.5262530460        0.1732892102
 H       -14.8491899465        5.9502820034       -0.5056529770
 Na       -9.0527971205        6.1716674985        1.2673511026
