117

 C       -12.6445475364        9.1569649348        0.0299415563
 C       -12.0073250598        7.8131397958        0.3625390725
 O       -10.9667559426        7.7655483205        0.9595077958
 C       -12.9415611313        6.4909996264        0.3024971270
 C       -12.0858919730        5.6185860815       -0.6072085171
 O       -11.9216380472        5.9155350503       -1.7778835517
 C       -11.3115225286        4.3997398879        0.0228889603
 C       -10.5048444203        3.7613622204       -1.1342736364
 C        -9.3402126884        4.6592520207       -1.6223647108
 O        -8.8324829868        5.5852690816       -0.9523149918
 C        -8.6288915094        4.2066621145       -2.9448294254
 C        -7.7976493359        2.8527725234       -2.5544328986
 O        -7.9265583337        2.4705021516       -1.4177113298
 C        -6.8957716888        2.1540316583       -3.5572807783
 C        -7.2908611861        0.7398255945       -3.6165428441
 C        -8.4334347116        0.5889756070       -4.6309178097
 O        -8.6509468151        1.3965772827       -5.4920585746
 C        -9.4294986690       -0.6755877934       -4.4508982947
 C       -10.6972794435       -0.1173247878       -3.7104897411
 O       -10.5516760074        0.8944588788       -3.0200867678
 C       -12.0364021176       -0.8534175439       -3.9597549155
 C       -12.9403992205       -0.3685626949       -2.7603284931
 C       -12.4740238057       -1.0090758885       -1.4204047475
 O       -11.4782859929       -1.7315128421       -1.3633284384
 C       -13.2896444193       -0.6593375133       -0.1188347451
 C       -12.3047502363        0.2263660232        0.7854921026
 O       -12.6984954249        1.3154637147        1.2060880428
 C       -11.0023281330       -0.3784706577        1.2577317124
 C       -10.6939438504        0.1363701658        2.7012010884
 C       -10.1057117334        1.5793424962        2.6951690847
 O        -9.0622516440        1.8125167245        2.1131103623
 C       -10.5764366169        2.7628199441        3.7829547357
 C        -9.6321443719        3.9610155004        3.4644084123
 O       -10.1294793903        4.9968868087        3.0109088046
 C        -8.1433329656        3.9144993332        3.7711585931
 C        -7.6264953707        5.2692870133        4.4012323304
 C        -7.0759833415        6.2553007159        3.2590823537
 O        -6.8321698710        5.8104070456        2.1402487541
 C        -7.0643307558        7.8372031220        3.4903437940
 C        -7.3600743956        8.6829776598        2.2277024369
 O        -7.9103332959        8.2117262605        1.2530478066
 C        -7.1361599777       10.1932125657        2.2728439236
 C        -8.1049597972        8.2154500586        4.5380423466
 C        -5.6103395812        8.1448631188        4.0276843342
 C       -12.0460253879        3.2841120720        3.5576712139
 C       -10.3192574934        2.1476316146        5.1057158791
 C       -14.5759023081        0.2032727257       -0.3079987788
 C       -13.6219848071       -1.9161908065        0.8034415956
 C        -9.8252362775       -1.2958532051       -5.8055560226
 C        -8.9301456636       -1.8214885040       -3.5431024877
 C        -9.7908053554        3.8995138192       -3.8910321597
 C        -7.5490404479        5.2796697161       -3.4375477407
 C       -13.2804366940        5.7836424412        1.5850053077
 C       -14.3330982707        6.8066069396       -0.3276627529
 H       -11.8652581893        9.8696184249       -0.0542206926
 H       -13.1060531342        9.4860626433        0.9338479277
 H       -13.3804569983        9.2414239325       -0.6615060454
 H       -12.0525778706        3.6522070925        0.3702833751
 H       -10.8125009533        4.7608095284        0.9322390317
 H       -11.1530003453        3.5880570729       -1.9642169146
 H       -10.0576771776        2.7960810977       -0.8272260612
 H        -5.8365295234        2.2309366423       -3.1884590800
 H        -6.7732948039        2.7655013570       -4.4433377015
 H        -7.6754550858        0.5067425281       -2.5891804554
 H        -6.4821542455        0.0842590909       -3.7799169489
 H       -11.9446857927       -1.8868452667       -4.1228098142
 H       -12.5720713238       -0.5977949694       -4.8605141562
 H       -14.0444623014       -0.6601605996       -2.8923988600
 H       -13.0390391685        0.7281841088       -2.7726165829
 H       -10.2676379061        0.0429528275        0.5424382070
 H       -10.9673560459       -1.4858719268        1.1055218132
 H        -9.9002479867       -0.4120699759        3.2165007564
 H       -11.4959398035        0.3150830190        3.3491396613
 H        -7.5196159349        3.7633701653        2.8645689626
 H        -7.9003491032        3.0881493565        4.3978988857
 H        -6.7532938920        5.0321401063        4.9054764155
 H        -8.4142844535        5.7459172089        4.9317468191
 H        -6.5887445451       10.4862409086        1.3962839965
 H        -6.5168189011       10.6800976400        3.0405267098
 H        -8.0555807384       10.7332735760        2.2389504950
 H        -7.7220911267        7.9910213682        5.5594275891
 H        -8.9763166451        7.6355763017        4.3352143496
 H        -8.4348309634        9.2828195650        4.4843824677
 H        -5.5526021599        7.5969377519        4.9419366496
 H        -5.4292769295        9.1224275426        4.3477242398
 H        -4.7630687890        7.7841130267        3.4260960232
 H       -12.1312004803        3.5646760420        2.5331361089
 H       -12.3254218369        4.0999493489        4.2618062763
 H       -12.7202419088        2.4922457410        3.6642027433
 H       -10.1988604948        2.8524497408        5.8496715837
 H        -9.3117547204        1.6443325032        4.9834781509
 H       -11.0086394235        1.3337118894        5.3485254119
 H       -14.4287754692        1.0393538539       -1.0559977938
 H       -15.0035256911        0.5409647549        0.6311439523
 H       -15.2772896184       -0.4872790396       -0.7723195260
 H       -12.7075130271       -2.4987631731        0.9379895460
 H       -14.3249937508       -2.5407069244        0.3053374953
 H       -14.0769815113       -1.4953077198        1.6831597966
 H        -8.9598396919       -1.9764200730       -6.0710707759
 H       -10.0063393903       -0.5653309383       -6.5513899573
 H       -10.6166163757       -1.9475868243       -5.7892079357
 H        -8.8556595923       -1.5631563302       -2.5172538273
 H        -7.9592552011       -2.2665457305       -3.7942962528
 H        -9.6266746105       -2.6890505551       -3.5393828964
 H       -10.5323079610        4.7158197726       -3.8764566896
 H       -10.3029750135        2.9219150718       -3.6725259777
 H        -9.4030443365        3.9342150778       -4.8873533626
 H        -6.7799305908        4.7323189137       -3.9359840225
 H        -7.1578478175        5.7747682758       -2.5335934416
 H        -7.9716087693        6.0603783195       -4.0600790335
 H       -12.3844236357        5.8169734927        2.2216835637
 H       -13.7382276818        4.7956958999        1.2388310673
 H       -14.0327288096        6.2507491407        2.1836979814
 H       -14.2644896802        7.1537868866       -1.3346972267
 H       -14.8280892025        7.5041353111        0.2702713272
 H       -14.9521558848        5.9165169166       -0.2664284593
 Na       -9.2238817622        6.2094018107        1.2390137538
