117

 C       -12.3089977215        9.2631110385       -0.2029519419
 C       -11.9566347970        7.9377888833        0.5127446097
 O       -10.8632988120        7.8577769935        1.0559900179
 C       -12.9506604416        6.7216934062        0.3634590617
 C       -12.1486784616        5.7107066054       -0.7039100815
 O       -12.1898073972        5.8205872244       -1.9188609597
 C       -11.4433929109        4.4602143562       -0.1220369657
 C       -10.6189349307        3.7420203069       -1.1625739211
 C        -9.3973685008        4.5491356429       -1.5805424395
 O        -8.9662651782        5.4939479683       -0.8821636029
 C        -8.5942443394        4.1057339405       -2.7979744914
 C        -7.8083646575        2.8308154858       -2.5276670748
 O        -8.0687188852        2.1581561189       -1.5502475090
 C        -6.7924942072        2.3066824202       -3.5134253451
 C        -7.0807377973        0.8023720129       -3.7653429497
 C        -8.4467456086        0.6272558008       -4.5960764045
 O        -8.6566672333        1.4314406385       -5.5104391378
 C        -9.4689837653       -0.5307611524       -4.3993750366
 C       -10.7583170910        0.0343999931       -3.7051297814
 O       -10.7538859667        0.9733135529       -2.9262415571
 C       -12.0111576612       -0.6817850565       -4.1345113551
 C       -13.1221852193       -0.4283782409       -3.1001789833
 C       -12.5255937414       -1.0342133678       -1.6405833722
 O       -11.5338643305       -1.7751744249       -1.5521517506
 C       -13.3100889299       -0.6735934847       -0.3535222486
 C       -12.4151097904        0.2119878973        0.6409718545
 O       -12.9427126812        1.1817935777        1.0878708024
 C       -11.0704387463       -0.3020238818        1.1075792592
 C       -10.6389600420        0.1390577792        2.5481346970
 C       -10.0697302698        1.5446414491        2.5953219364
 O        -9.3503215601        1.9883155917        1.7245707833
 C       -10.4619843416        2.5826292841        3.7638127163
 C        -9.5980104438        3.9281959085        3.5343385380
 O       -10.2464630136        4.8669413372        3.0789995173
 C        -8.0924615135        3.9003684309        3.7962089115
 C        -7.5565248782        5.1691219875        4.4991759321
 C        -7.2219576451        6.2127290850        3.5071216614
 O        -6.9388937259        5.8511036659        2.3767051312
 C        -7.0495725987        7.7288927102        3.7789605796
 C        -7.2408122230        8.6269211984        2.5377311065
 O        -8.0540884876        8.3987201614        1.6735049387
 C        -6.4848114079        9.9886171676        2.5134692586
 C        -8.0917208134        8.3133437206        4.9057276392
 C        -5.6439166800        7.8237872802        4.2706693065
 C       -11.9473956948        2.8305818047        3.5360294969
 C       -10.1405337803        2.1162233668        5.2041677562
 C       -14.6401159973        0.1183487739       -0.5559942178
 C       -13.6883009992       -2.0026923610        0.3724725672
 C        -9.7373734505       -1.0676928143       -5.8126804951
 C        -8.8713606115       -1.6534953423       -3.5389104292
 C        -9.5132883745        3.7762092625       -4.0533153876
 C        -7.5030491308        5.1989582584       -3.1063293308
 C       -13.0779986955        6.0690926034        1.8314861902
 C       -14.3553139260        7.1461392893       -0.1199507284
 H       -11.7329954363       10.0702180434        0.1123358709
 H       -13.3902322028        9.6215134055       -0.2161976917
 H       -12.1683836572        9.0512091228       -1.2679230417
 H       -12.2743337086        3.8327162128        0.2060840503
 H       -10.9100237904        4.6330275218        0.8169516271
 H       -11.1981381959        3.4740545636       -2.0193532039
 H       -10.2467283133        2.8154404046       -0.5897259787
 H        -5.7855653875        2.4976845343       -3.0005225290
 H        -6.6479610930        2.9558194438       -4.3890006854
 H        -7.2114216241        0.3476400024       -2.7642194796
 H        -6.2308901464        0.3801239404       -4.2327770408
 H       -11.9646766400       -1.7317851691       -4.2833617603
 H       -12.1263242608       -0.2575359923       -5.1233751661
 H       -14.1107064555       -1.0216961681       -3.2189269822
 H       -13.3395108978        0.6368922925       -2.9905262318
 H       -10.4265834908        0.1351332647        0.3393061624
 H       -10.9405655012       -1.3874636579        1.0066467684
 H        -9.8188049542       -0.4757482988        2.9485383510
 H       -11.4173099793        0.0070243015        3.2811193187
 H        -7.6026366679        3.7160002812        2.8015505618
 H        -7.7554660901        3.0207526187        4.3062415298
 H        -6.5908871201        4.9149594616        4.9533106960
 H        -8.3073881015        5.5866810007        5.2013379828
 H        -5.4379870483       10.0111995703        2.6246848304
 H        -6.8181184176       10.7088839562        3.2489468785
 H        -6.5739588731       10.4129309415        1.5221686201
 H        -7.8692902531        7.7032945672        5.7809832695
 H        -9.1224018899        8.2932631739        4.7106721652
 H        -7.8481814696        9.3696621729        5.0402872136
 H        -5.5105218724        7.1040369301        5.0884923287
 H        -5.3125829541        8.7904416195        4.6322367635
 H        -4.9142924328        7.6221192460        3.4222694464
 H       -12.1745723490        3.3763509497        2.5868316479
 H       -12.3651724078        3.3960155968        4.3859062671
 H       -12.3930633394        1.8673320041        3.5225497476
 H       -10.5779497205        2.7547322956        5.8860136441
 H        -9.0458817799        2.3018218563        5.3652514685
 H       -10.4482084988        1.0718708636        5.3564897844
 H       -14.4008400943        1.2046592719       -0.6522534919
 H       -15.2193712721        0.1173379421        0.3921959154
 H       -15.2532871717       -0.2704549225       -1.3413410630
 H       -12.7591774488       -2.5803047415        0.3749344270
 H       -14.4190331779       -2.6215375637       -0.1726332396
 H       -13.9937249654       -1.6664943074        1.3709419360
 H        -8.7815347120       -1.4333472343       -6.2873054082
 H       -10.1820119265       -0.3231968047       -6.4895298192
 H       -10.3788036203       -1.9300756708       -5.8607561218
 H        -8.8804453753       -1.3974531264       -2.5369292859
 H        -7.9072065555       -2.0371794902       -3.7685009394
 H        -9.4839987457       -2.6008377512       -3.5906912949
 H       -10.1444950408        4.6260377188       -4.3221158151
 H       -10.2045505938        2.9224178515       -3.8634722283
 H        -8.8381427545        3.4564145384       -4.8353243074
 H        -7.0799012417        4.9996342448       -4.1246243233
 H        -6.6784303030        5.0622914999       -2.4153373707
 H        -7.9614487849        6.2062414115       -2.9897402520
 H       -12.0862537952        5.6764060735        2.2553763588
 H       -13.9018988711        5.3188355520        1.7792090906
 H       -13.4198748527        6.8955924197        2.4435300707
 H       -14.3732681026        7.4618768648       -1.1759816802
 H       -14.7206581293        7.9288641647        0.5238475081
 H       -15.0893124592        6.3325320090        0.0408543795
 Na       -9.2595677935        6.2405267614        1.1280453322
