117

 C       -12.8741777565        9.1690348906        0.2868244784
 C       -12.1832499886        7.8074056370        0.4416285784
 O       -11.1620262925        7.8625803700        1.1117660428
 C       -12.9674849489        6.4585054413        0.1281060402
 C       -12.1297981258        5.5473016992       -0.7282864544
 O       -11.9106166168        5.9082782777       -1.8589796385
 C       -11.4950325333        4.2831587730       -0.1662863614
 C       -10.4188989772        3.6185276904       -0.9646923194
 C        -9.3089114091        4.5442462060       -1.5583021838
 O        -8.9882920688        5.5820893688       -0.9530734914
 C        -8.5491993771        4.2450905362       -2.8792068908
 C        -7.6422121041        2.9795650938       -2.5690271481
 O        -7.6198336675        2.5518401842       -1.4418870146
 C        -6.9727904738        2.1639306490       -3.7159108589
 C        -7.3672166725        0.6674254494       -3.7542076669
 C        -8.4907169530        0.3705172800       -4.7526114223
 O        -8.6117397669        1.0912605398       -5.7300302476
 C        -9.4645212635       -0.8256917110       -4.4781464369
 C       -10.6107659879       -0.2081220242       -3.6300264977
 O       -10.5418431240        0.8726595616       -3.0756023799
 C       -11.9513888784       -0.8744352329       -3.6394113888
 C       -12.8547585831       -0.3676093137       -2.5198149090
 C       -12.4751070238       -0.9900948080       -1.0880866944
 O       -11.4727181421       -1.7124018245       -0.9512505050
 C       -13.3193506398       -0.5559512143        0.1766436258
 C       -12.3889375334        0.3824844688        0.9212960443
 O       -12.4966521873        1.5797785843        0.8021038758
 C       -11.2109379020       -0.2989639237        1.6021670863
 C       -10.6838432261        0.1853393996        2.9491345687
 C        -9.9708929021        1.5382075821        2.8607939643
 O        -9.1418519113        1.8042746553        2.0202978291
 C       -10.3935987681        2.6903718528        3.8981969673
 C        -9.5314938708        3.9449116279        3.5387020804
 O       -10.0693033332        4.8457698236        2.9048576467
 C        -7.9991465088        3.9836225319        3.8847075072
 C        -7.5606763470        5.3594697448        4.2735156015
 C        -7.2187957524        6.3065056438        3.1266899427
 O        -6.9252756093        5.9451090776        1.9878437990
 C        -7.1483644868        7.8634603438        3.3710834779
 C        -7.4376600388        8.6890340092        2.0715387517
 O        -7.8925789115        8.2222056984        1.0304602442
 C        -7.2836004047       10.2805283530        2.0918452661
 C        -8.1546740386        8.3741434761        4.5563876366
 C        -5.7273435214        8.1300459347        3.7847031199
 C       -11.8080923971        2.9659335280        3.5514195294
 C       -10.1867581845        2.3067066331        5.3855135544
 C       -14.6527942289        0.1301339780       -0.1897888089
 C       -13.5704422908       -1.8979651384        0.9197885410
 C        -9.9623009889       -1.4677397560       -5.7679867051
 C        -8.8211591163       -2.0030085124       -3.6408918708
 C        -9.5279986307        3.9290882104       -4.0437656796
 C        -7.6755669628        5.4409121362       -3.2961561488
 C       -13.3524246492        5.9323741173        1.5215517507
 C       -14.2963496041        6.5979772462       -0.6426221224
 H       -12.4080510742        9.9796575002        0.8684715248
 H       -13.9779357784        9.1041070849        0.6526520695
 H       -13.0293959804        9.5068221198       -0.7372515809
 H       -12.4038426580        3.6479911646       -0.1176711500
 H       -11.1644629624        4.3873556136        0.8800516325
 H       -10.7725495825        2.9753649099       -1.7089093610
 H        -9.8347950288        2.9896281136       -0.2505433153
 H        -5.8961199679        2.2186562141       -3.5270800203
 H        -7.0481719419        2.5752911358       -4.6850095555
 H        -7.5543943219        0.1846299385       -2.8014165762
 H        -6.4595674786        0.1419197188       -4.1949678680
 H       -11.9782509859       -2.0075117606       -3.5821202287
 H       -12.4647589402       -0.7637217201       -4.6372093138
 H       -13.8937985679       -0.6198697012       -2.7681245039
 H       -12.9373179499        0.6649121727       -2.4493248062
 H       -10.5286463148       -0.0990082326        0.7478867519
 H       -11.2787455215       -1.3663446568        1.6924724126
 H        -9.8704364215       -0.4603339196        3.3292420184
 H       -11.4536544384        0.4379045475        3.7106134164
 H        -7.4374046384        3.6254971565        2.9910212321
 H        -7.7378795220        3.3521788807        4.7411699676
 H        -6.5934203529        5.2396467335        4.8069833931
 H        -8.3819083128        5.8095771282        4.8728733187
 H        -7.2949443933       10.6685233487        1.0929775594
 H        -6.3820509424       10.8215347036        2.4422218291
 H        -8.1183124631       10.8132449054        2.6196377430
 H        -8.0912665062        7.7432390365        5.4453036783
 H        -9.1657673300        8.4682643270        4.2354449629
 H        -7.7701891641        9.3161799756        4.9862922478
 H        -5.2519243229        7.4496028791        4.4868386554
 H        -5.5727356826        9.1538877029        4.1298573643
 H        -5.0928767281        7.9086819670        2.8692736967
 H       -11.8520621926        2.9706512703        2.4284194984
 H       -12.1278114535        3.9432085609        3.9368919095
 H       -12.5161055602        2.2168172512        3.8815218488
 H       -10.7173206631        2.9915495811        5.9813329008
 H        -9.0741149166        2.2392514793        5.6263760326
 H       -10.5025994619        1.2757578208        5.6538060245
 H       -14.5163623272        1.1492104380       -0.5118721951
 H       -15.1604797123        0.1219449010        0.7805112378
 H       -15.2246727740       -0.3673744357       -0.8972225577
 H       -12.6670218277       -2.4830522422        0.8130189704
 H       -14.4810211625       -2.3549951103        0.4860387961
 H       -13.7868600175       -1.6888788385        1.9758019510
 H        -9.1127931441       -1.8174491686       -6.4277877677
 H       -10.5294405957       -0.7218985058       -6.3536715280
 H       -10.6579193674       -2.2789600775       -5.5337711803
 H        -8.5119370185       -1.7795697534       -2.6535984359
 H        -7.9303141300       -2.4002297873       -4.1047812190
 H        -9.5851528018       -2.8540314872       -3.5036363882
 H       -10.2278093157        4.7308877868       -4.1364202004
 H       -10.0602804754        3.0189116636       -3.7801106746
 H        -9.0349822651        3.8733852008       -4.9966304712
 H        -7.1512113112        5.1302289662       -4.2311996111
 H        -7.0268101704        5.6877429141       -2.4971341777
 H        -8.2780538418        6.3228994228       -3.5227978822
 H       -12.4728256697        5.9438970930        2.1908731567
 H       -13.8792250008        4.9860876461        1.4970918593
 H       -14.0314682485        6.6581379862        1.8949737632
 H       -14.1226352452        7.1262045009       -1.6203438969
 H       -14.9694530077        7.2450114732       -0.0488174413
 H       -14.7076152239        5.5866693765       -0.8344480461
 Na       -9.1828267134        6.4441579745        1.0952803240
