117

 C       -13.1288285444        9.0931046177        0.3159154604
 C       -12.3993181310        7.7987950167        0.4889913975
 O       -11.3159201951        7.8042276866        0.9599581373
 C       -13.0477152823        6.3994504012        0.0319775517
 C       -11.9794587034        5.6337331468       -0.8405131137
 O       -11.6571859630        5.8860639550       -1.9813337015
 C       -11.4162518756        4.3447118409       -0.2577701771
 C       -10.3675897247        3.6355090164       -1.1947007491
 C        -9.2368669520        4.5436679352       -1.6329817522
 O        -8.9117351055        5.5305873948       -0.9795271099
 C        -8.5181701849        4.2237120029       -2.9262030736
 C        -7.5990215280        2.8931337358       -2.7591264294
 O        -7.2613377653        2.5308474446       -1.6578902742
 C        -7.1975441416        2.1675383814       -4.0125907241
 C        -7.3750561989        0.7197271143       -3.8853576608
 C        -8.4115780743        0.1852833741       -4.9321368654
 O        -8.5364089405        0.6309687688       -6.0269726441
 C        -9.4219719769       -0.8661964089       -4.4558995638
 C       -10.5944798548       -0.2450831008       -3.4740613304
 O       -10.4306057861        0.7733576417       -2.8055517710
 C       -11.9571062159       -1.0190102124       -3.4503636789
 C       -12.8656759730       -0.6239278053       -2.3262106498
 C       -12.5153265605       -1.2105754215       -0.8924935039
 O       -11.5969139491       -2.0169546354       -0.7331101912
 C       -13.2208045893       -0.6254647046        0.3296108577
 C       -12.1986784764        0.1783667341        1.2053315742
 O       -12.3463070606        1.3956748880        1.3517012088
 C       -11.0719743910       -0.5647549058        1.9370638625
 C       -10.8579109806        0.2370172788        3.2232371999
 C       -10.0092811809        1.6041796826        2.9830202551
 O        -9.1519872049        1.6366113896        2.1024564400
 C       -10.2165093129        2.8375155385        3.9734245512
 C        -9.5110581891        4.1135351508        3.4459739656
 O       -10.0967038560        4.9698745639        2.8028735326
 C        -8.0197766255        4.2057662377        3.8195197203
 C        -7.4818580293        5.5523524617        4.1695555605
 C        -7.3679073707        6.5678817543        2.9930576437
 O        -7.3503719696        6.1327756695        1.8535341138
 C        -7.1658014422        8.0919123464        3.3384897420
 C        -7.5919015071        8.9492831199        1.9717931545
 O        -8.3522412379        8.4618094644        1.1908602494
 C        -6.9987322444       10.3621007593        1.8789072884
 C        -7.9904000182        8.5455421678        4.4717866659
 C        -5.6974916305        8.2233283427        3.5733311286
 C       -11.8045124674        3.2263376682        3.9754132430
 C        -9.6620250495        2.4209694605        5.3804559134
 C       -14.3973005649        0.3673444194        0.0945746727
 C       -13.7454132920       -1.8837439116        1.1190175295
 C       -10.1179907963       -1.4452626814       -5.7452335168
 C        -8.7978956855       -2.0196327366       -3.7370365035
 C        -9.4678367125        4.0136607563       -4.0928044807
 C        -7.4774544289        5.3508256856       -3.1995138193
 C       -13.5554159659        5.6766320665        1.3524645106
 C       -14.3198720437        6.6043551279       -0.9015077280
 H       -12.6841574991        9.9324437245        1.0207176340
 H       -14.2263503826        9.0475792785        0.4109275492
 H       -12.9022354488        9.4974392971       -0.7092772883
 H       -12.2071115338        3.5713227110       -0.1720575267
 H       -11.0537662815        4.5314951313        0.7592214861
 H       -10.7927218406        3.0916701095       -2.0053760667
 H        -9.9111753679        2.7948381420       -0.5790217305
 H        -6.1076786482        2.2912180897       -4.1751086881
 H        -7.7397050684        2.5434697369       -4.8440581408
 H        -7.5642952330        0.3860189158       -2.8719307730
 H        -6.3998385007        0.2253168848       -4.1148791645
 H       -11.8202827706       -2.1214046174       -3.2856648476
 H       -12.4890418612       -0.9012870277       -4.4358542473
 H       -13.9138122738       -0.9834692432       -2.5027862247
 H       -13.0092492901        0.4157780237       -2.3684766307
 H       -10.1983983510       -0.4447557009        1.2880837970
 H       -11.2246499965       -1.6175145392        2.0492341531
 H       -10.2953496942       -0.2717083049        4.0450594891
 H       -11.7146216087        0.7464494645        3.6734786544
 H        -7.5237448891        3.8325936566        2.8807452517
 H        -7.8418179809        3.5648857932        4.6701242066
 H        -6.4215627913        5.4347445067        4.5838264968
 H        -8.0315706069        6.0495089398        5.0475785363
 H        -7.4886156625       11.0694081765        1.2540790149
 H        -6.0053438547       10.3201094638        1.4267386595
 H        -6.8326035621       10.8360908209        2.8340959149
 H        -7.5592379931        8.1867671228        5.4302536481
 H        -8.9356307790        8.0712429808        4.4150154319
 H        -8.1255629661        9.6454784727        4.5360475807
 H        -5.3309760903        7.6215604365        4.4082220433
 H        -5.4249583245        9.2635343646        3.6987817922
 H        -5.0591325891        7.8553578776        2.7106179703
 H       -12.2249250996        3.4739502564        2.9986925234
 H       -12.0989622777        4.0822906889        4.6365666123
 H       -12.3206581706        2.3709143965        4.3544234388
 H        -9.5339588432        3.1905442556        6.0769471710
 H        -8.7788047755        1.6860280610        5.3586412607
 H       -10.4969219139        1.8983222514        5.8929546153
 H       -14.0869550800        1.3189786127       -0.4448202205
 H       -14.7851557407        0.7004700584        1.0714712846
 H       -15.2023114714       -0.1124136013       -0.4561370559
 H       -12.8705413189       -2.5698023860        1.1831679461
 H       -14.4978801452       -2.2556566518        0.4151819325
 H       -14.1529503137       -1.7573712533        2.1354526655
 H        -9.2676508028       -1.9309458017       -6.3855570591
 H       -10.5354489282       -0.6264188164       -6.3596236868
 H       -10.8667702564       -2.1229852720       -5.3984930805
 H        -8.6186922254       -1.7604057410       -2.7321949660
 H        -7.8344048100       -2.2331997709       -4.1622977014
 H        -9.4316431568       -2.9315634720       -3.7560479565
 H       -10.2925347996        4.7430619311       -4.0579047685
 H        -9.8542732529        2.9589879699       -4.1740361733
 H        -8.9128692559        4.1497078268       -5.0129598235
 H        -6.8275916767        5.0755920139       -4.0572831251
 H        -6.8660708967        5.4046520286       -2.2684971359
 H        -7.9393240613        6.3244184068       -3.4602697739
 H       -12.7367304069        5.2570481547        1.9506307905
 H       -14.1012599805        4.7353742040        1.1161978631
 H       -14.1790163521        6.3932884712        1.8227153016
 H       -14.1028293129        7.1726528100       -1.8099284342
 H       -15.1455279610        7.0155544959       -0.3676885967
 H       -14.5480088679        5.5901005544       -1.2417552724
 Na       -9.6345758995        6.4996279497        0.9005138626
