117

 C       -13.0788074466        9.1099878329        0.3154926241
 C       -12.3656661759        7.8461065269        0.4875212590
 O       -11.2205623463        7.8719140231        0.9965778887
 C       -13.0584471257        6.4612551954        0.0264553352
 C       -12.0406179810        5.5335592573       -0.8218541621
 O       -11.7735838858        5.9551757637       -1.9134894466
 C       -11.3805841712        4.2609123821       -0.1069205281
 C       -10.4843394663        3.5613927636       -1.0476968487
 C        -9.2989259622        4.5055462313       -1.5725579603
 O        -9.0425387690        5.5617514165       -1.0018145966
 C        -8.4624996017        4.1930616276       -2.8734633847
 C        -7.6431357773        2.8842095607       -2.6519733356
 O        -7.2304340529        2.5616603855       -1.5409496171
 C        -7.1372544942        2.2408586480       -3.9840666363
 C        -7.3613476626        0.6944022257       -3.9078814934
 C        -8.4682207151        0.2529700455       -4.8880362326
 O        -8.4593452433        0.7269236626       -6.0394828016
 C        -9.4709179975       -0.8436335771       -4.4143145364
 C       -10.6357996894       -0.2420907908       -3.5141055915
 O       -10.4541042130        0.7491416171       -2.8595948565
 C       -11.9179998044       -1.0612300837       -3.4587058901
 C       -12.9351947936       -0.5955685694       -2.3740603163
 C       -12.5682322450       -1.0461013537       -0.9574131592
 O       -11.6326695926       -1.8434485408       -0.8712134406
 C       -13.3559125859       -0.6429728897        0.3521416634
 C       -12.2826342534        0.1824627524        1.1291090876
 O       -12.2590789257        1.3718344594        1.1781774237
 C       -11.0625295732       -0.4907796833        1.8559252402
 C       -10.7308735325        0.3142262843        3.1032501496
 C        -9.9696683455        1.6561999418        2.9040133149
 O        -9.0632510587        1.7491034131        2.1221830617
 C       -10.3234626574        2.8041038990        3.9546320067
 C        -9.4931329056        4.0665244689        3.4335941639
 O       -10.0600117095        4.9030612876        2.7340774087
 C        -7.9551656163        4.1460598897        3.8041607661
 C        -7.5658127402        5.5209701447        4.2294983663
 C        -7.3563347630        6.4810378102        3.0476949934
 O        -7.3113334596        6.0537919693        1.8938466206
 C        -7.1659157790        8.0400170436        3.3009127172
 C        -7.5221550721        8.8271309769        2.0396526713
 O        -8.1636260008        8.4553141062        1.0339270874
 C        -7.1288031428       10.3111223694        2.0508562732
 C        -8.0670269501        8.5421868239        4.4602407564
 C        -5.5692232789        8.2002014162        3.6315553630
 C       -11.7438511127        3.2165496104        3.9635754312
 C        -9.8671127371        2.4476796576        5.3595876666
 C       -14.5857425585        0.2915954056        0.0837128056
 C       -13.7783783582       -1.9555572199        1.1204069048
 C        -9.9975176215       -1.4093478912       -5.8620399716
 C        -8.7395369515       -1.9681549874       -3.6664006853
 C        -9.4555379483        4.0401335152       -4.0976692196
 C        -7.4620687164        5.2738159928       -3.2617360963
 C       -13.4112667661        5.6684503062        1.3130185634
 C       -14.3115139048        6.6972388632       -0.8572886767
 H       -12.8506968321        9.8343407546        1.0613652333
 H       -14.2160733923        8.9918020686        0.2195277470
 H       -12.7375607342        9.5749260792       -0.6099825328
 H       -12.1230682281        3.5444980529        0.2514076729
 H       -10.8463683526        4.5870326438        0.7738105653
 H       -11.0536268437        3.1437558706       -1.9156140153
 H       -10.0580761272        2.6263627313       -0.5783305858
 H        -6.0806298673        2.5834122004       -4.2057400515
 H        -7.7930646272        2.5837069884       -4.8304533712
 H        -7.5139673777        0.3801255610       -2.9213967932
 H        -6.5137293954        0.0589756156       -4.2620693298
 H       -11.7436903428       -2.1436649588       -3.3746492564
 H       -12.3327621867       -0.9276183341       -4.4301205151
 H       -13.9873603303       -0.9335533342       -2.4518703463
 H       -13.0683846370        0.5069236323       -2.5538359499
 H       -10.2261375130       -0.6721807005        1.1661221284
 H       -11.3377625391       -1.4509487838        2.2342471123
 H       -10.0887328806       -0.2253146042        3.7427901902
 H       -11.5852947653        0.7121695340        3.6850421792
 H        -7.4257380017        3.8624346005        2.9089873336
 H        -7.7548979737        3.4694701205        4.6672445706
 H        -6.5045728649        5.4400805338        4.6473902148
 H        -8.1484710668        5.9836995986        5.0621400353
 H        -7.5546857573       10.7884984220        1.2220952056
 H        -6.1042485904       10.4270502294        1.7814242374
 H        -7.2596781399       10.9550914554        2.9373295976
 H        -7.6153975545        8.3337058931        5.4273920092
 H        -8.9729321559        7.9258524318        4.4374872114
 H        -8.3149466255        9.6090942885        4.4549833978
 H        -5.3347525509        7.6743503241        4.5195958835
 H        -5.3178385514        9.2439101505        3.7313221308
 H        -4.8598519876        7.7640124722        2.9256192400
 H       -12.2161068642        3.2951379076        2.9542415994
 H       -11.8136847722        4.1625688468        4.3826546169
 H       -12.3470939832        2.5558931573        4.5749269323
 H        -9.9400865712        3.2571296810        6.0708579852
 H        -8.8717856372        1.9639089366        5.2814673228
 H       -10.5030023818        1.7144771531        5.8578221510
 H       -14.3148311364        1.1796460910       -0.4864374968
 H       -14.9533182536        0.6793620440        1.1076625659
 H       -15.4024951451       -0.2278688941       -0.4312601786
 H       -12.9316783641       -2.5906942867        1.1561990318
 H       -14.5872571217       -2.3250006144        0.4502885684
 H       -14.1690015272       -1.8223966923        2.1189900386
 H        -9.0737438087       -1.6145661750       -6.3731749332
 H       -10.5019127642       -0.6628442081       -6.4659161635
 H       -10.6278600929       -2.2977922449       -5.7007032785
 H        -8.2739806042       -1.6336458723       -2.7698065504
 H        -7.9215301673       -2.2657948912       -4.2626318948
 H        -9.3869582020       -2.8511185638       -3.4181199934
 H       -10.2361176198        4.8114636451       -4.0922014896
 H        -9.8910596228        3.0457933910       -4.0051109717
 H        -8.9617475659        4.0453706989       -5.1167366085
 H        -7.1938381104        5.1995019022       -4.3639428742
 H        -6.6221487866        5.3036483998       -2.6360153133
 H        -8.0429368548        6.2049773216       -3.1969921594
 H       -12.4366758242        5.3904530627        1.8128831922
 H       -13.7608198297        4.6928483916        1.0735491797
 H       -14.1561858278        6.2301665264        1.9590912709
 H       -13.9855819857        7.2958003321       -1.6832836501
 H       -15.1554428259        7.1681364136       -0.3904809558
 H       -14.5216193394        5.7760478746       -1.2782372543
 Na       -9.6361416185        6.3548158847        0.9919187991
