117

 C       -13.2768577340        9.0654192996        0.2560623940
 C       -12.4984228803        7.7517379438        0.3913570436
 O       -11.4476930944        7.7719725631        1.0005029269
 C       -13.0599457504        6.3459810318       -0.0166246721
 C       -11.9517626429        5.5666647719       -0.8565694576
 O       -11.6849534744        6.0191706691       -1.9702852102
 C       -11.4293195024        4.2273019587       -0.2942366962
 C       -10.2938924485        3.6322108206       -1.2344641678
 C        -9.2234815200        4.6209190557       -1.6433046561
 O        -8.7712281012        5.5217028925       -0.9603884554
 C        -8.4826329176        4.2496421807       -2.9962335268
 C        -7.6004261773        2.9187345083       -2.8180895768
 O        -7.3265466551        2.5091616019       -1.7377980453
 C        -7.0722986978        2.1404374348       -4.0698303163
 C        -7.3670865210        0.6093214890       -3.9510182780
 C        -8.5280975558        0.1978124382       -4.8892350541
 O        -8.4740746569        0.6607163438       -6.0049470587
 C        -9.6028291413       -0.9617669775       -4.4423934080
 C       -10.5777561371       -0.3160583990       -3.4979938804
 O       -10.3452364674        0.7053657359       -2.8653862434
 C       -11.9102271216       -1.0118095290       -3.3930160151
 C       -12.7700881997       -0.6607138913       -2.2320224684
 C       -12.3435606971       -1.2062456613       -0.8806889320
 O       -11.6206545220       -2.1315664712       -0.7235852114
 C       -13.1351746025       -0.6254417423        0.3646774252
 C       -12.1534878852        0.1993149728        1.3097527245
 O       -12.4160843220        1.3974421516        1.4477088355
 C       -11.0335517438       -0.4440891350        2.0774926748
 C       -10.8047365298        0.2463214551        3.3831957339
 C       -10.0689907442        1.5651092716        3.0604824303
 O        -9.2980546119        1.5424265728        2.1541577838
 C       -10.2383629581        2.7795902431        3.9888722722
 C        -9.4925369388        4.1040188755        3.4765691659
 O       -10.0851417692        4.9819258192        2.8869019469
 C        -7.9314024551        4.2390724502        3.6941902134
 C        -7.4140665887        5.6410341244        4.1425700637
 C        -7.4179515918        6.6221758894        2.9121161578
 O        -7.3850007935        6.1478002781        1.7975200463
 C        -7.1748463983        8.0859496543        3.2933539119
 C        -7.6259387514        9.0078632881        2.0128499879
 O        -8.5306841745        8.6615176086        1.2839753212
 C        -6.9356654410       10.2539977967        1.7123746474
 C        -7.9909709360        8.6021477932        4.5291629073
 C        -5.6599088978        8.3051118534        3.5143453741
 C       -11.7628313386        3.1507242578        4.0671815428
 C        -9.7253025755        2.3620424624        5.3154174412
 C       -14.2910811305        0.3463616571        0.0145610291
 C       -13.7543826732       -1.7949915516        1.1497214405
 C       -10.3044595409       -1.5170046707       -5.6920818077
 C        -8.8148319131       -2.1434052920       -3.6464274756
 C        -9.5575767788        4.0810129815       -4.1074522178
 C        -7.4437565632        5.4678128211       -3.2224703549
 C       -13.5689082512        5.7563530834        1.2481709379
 C       -14.2949293587        6.5658175000       -0.9593576319
 H       -12.7436461026        9.8604018917        0.8114877634
 H       -14.2794713724        8.9708818771        0.6564694105
 H       -13.3512244232        9.4939213008       -0.7923710127
 H       -12.1992449964        3.4278814791       -0.2659654734
 H       -11.1406020228        4.4600488970        0.7546823338
 H       -10.7019228482        3.2069321424       -2.1422075772
 H        -9.8119093999        2.7786875569       -0.8177606340
 H        -6.0128123453        2.1526038122       -3.9784019669
 H        -7.4371358818        2.5769864149       -4.9794100614
 H        -7.7250934701        0.4205635562       -2.8818179142
 H        -6.4856291027       -0.0042980697       -4.0561187934
 H       -11.7755446793       -2.1068125295       -3.3060500784
 H       -12.5412537790       -0.8333586654       -4.3400639924
 H       -13.8086394645       -0.9091833479       -2.4124373509
 H       -12.7880561982        0.4107742400       -2.1976918367
 H       -10.1276989927       -0.4554056345        1.4819913069
 H       -11.2985573377       -1.5120462784        2.2511090552
 H        -9.9926138759       -0.3102929167        3.9611074369
 H       -11.5978338475        0.4805364193        4.0548455258
 H        -7.5488882616        4.0492206940        2.6579429249
 H        -7.6393783260        3.4839950573        4.4117046327
 H        -6.4343413084        5.6660705910        4.6371241636
 H        -8.0679087327        6.1077318077        4.9113724574
 H        -7.5904745900       11.0123332239        1.2052931545
 H        -6.0580681786       10.1771688817        1.0516508380
 H        -6.5757111251       10.7410314223        2.5891424625
 H        -7.6576032234        8.0794537155        5.4326632692
 H        -9.0793834251        8.4767241198        4.5230937189
 H        -7.7548546403        9.6585800290        4.6151444485
 H        -5.2848593833        7.6314020017        4.3460227568
 H        -5.4581273300        9.3653762156        3.7957308274
 H        -4.9810460247        8.0948041127        2.6813958134
 H       -12.1636884428        3.5538575319        3.1659467013
 H       -12.0617345630        3.9085582824        4.8588570751
 H       -12.2928932710        2.2202285781        4.3180206227
 H        -9.4793119203        3.2300665622        5.9951137870
 H        -8.8618608512        1.7206208191        5.2418310545
 H       -10.4929206633        1.8809750120        5.9373032595
 H       -13.8613638760        1.2097132251       -0.5085172777
 H       -14.8747106485        0.7153377789        0.7990793079
 H       -14.9437837236       -0.1788893775       -0.7079118724
 H       -12.9053245577       -2.5087818832        1.3609587838
 H       -14.5876415603       -2.2111759098        0.6056760244
 H       -14.0467788985       -1.4247802153        2.1591593100
 H        -9.5392808102       -1.9690635305       -6.3180555014
 H       -10.6527659593       -0.6087777874       -6.2450819037
 H       -11.1404187344       -2.2002902881       -5.4300885265
 H        -8.6635036654       -1.8662496489       -2.5692982126
 H        -7.8101554634       -2.3038591201       -4.1090065174
 H        -9.3490124336       -3.0362499942       -3.6924542529
 H       -10.2878377305        4.8538899755       -3.8609643022
 H       -10.0224637277        3.0935541703       -4.2062228744
 H        -9.1615401438        4.2764494965       -5.0791458131
 H        -6.6359402901        5.1710044011       -3.8601372120
 H        -6.9978481669        5.7143358348       -2.2034248456
 H        -7.9273963757        6.3333719657       -3.6871857876
 H       -12.7863714550        5.4516913836        1.8655941576
 H       -14.0536364090        4.7775842443        1.0522757388
 H       -14.2232636392        6.4613217348        1.6850717655
 H       -14.1017370557        7.0807224326       -1.9137481314
 H       -15.0586654266        7.0826570778       -0.3560847905
 H       -14.7075985492        5.5396138481       -1.1815989206
 Na       -9.4860088575        6.5482946979        0.8959643613
