117

 C       -14.0266687155        8.2859060686       -0.1241407555
 C       -12.9685191354        7.2304930873        0.0175436462
 O       -11.7792766556        7.5383530550        0.2495019945
 C       -13.4032384364        5.8172099963       -0.4757215091
 C       -12.0607882974        5.1586174682       -1.1767443943
 O       -11.8455366550        5.3364969823       -2.3388674084
 C       -11.3825045318        4.0334817918       -0.3781533672
 C       -10.2554140887        3.4364868165       -1.2750665695
 C        -9.0816106245        4.4401890680       -1.5594671289
 O        -8.8908929594        5.4404186382       -0.8990254154
 C        -8.2479440484        4.2336332520       -2.8385243891
 C        -7.7394313035        2.7800140722       -2.9197763283
 O        -7.7502984013        2.0959734144       -1.8782491780
 C        -7.1589934779        2.2669681521       -4.2591339349
 C        -7.3076218795        0.7534091543       -4.4558287364
 C        -8.7224367892        0.3168624426       -4.9990495655
 O        -9.1271088747        0.7863232381       -6.0501202805
 C        -9.4187515293       -0.9434886001       -4.3318431251
 C       -10.4286172572       -0.4454544783       -3.2079734846
 O       -10.7576960984        0.6912258122       -3.1026381098
 C       -11.1304502154       -1.5074921234       -2.3421828083
 C       -12.4227955101       -0.9745812819       -1.4693761159
 C       -12.2540273929       -1.2536549721        0.0026073055
 O       -11.4521142957       -2.0789986657        0.3546633562
 C       -13.1433765790       -0.5166328867        1.1148648512
 C       -12.2264620743        0.3289048860        1.9728118693
 O       -12.3818869915        1.5435232427        2.0741967455
 C       -11.0827264283       -0.3286182306        2.7997459512
 C       -10.4919129166        0.6136322786        3.8722458205
 C        -9.9488415851        1.9934962855        3.2798564815
 O        -9.4017422012        2.0936502534        2.2025160037
 C       -10.0885950571        3.3314850236        4.1206829709
 C        -9.3485518943        4.3129528878        3.2077098511
 O       -10.0247015561        5.1382917925        2.6249682452
 C        -7.8629663132        4.2449775450        2.9894283036
 C        -7.2180412989        5.6093947660        3.4694226017
 C        -7.1214183229        6.7248397999        2.3186189108
 O        -7.2268598189        6.3594656962        1.1797891424
 C        -7.0352865185        8.2560032400        2.7602432919
 C        -7.7473480704        9.1835028323        1.7329611515
 O        -8.7800701730        8.8227982468        1.1535969238
 C        -7.1907834968       10.5555188820        1.5586679173
 C        -7.7306173090        8.4794559737        4.0995753447
 C        -5.5042081732        8.5623301043        2.8338471025
 C       -11.5409549976        3.6838570912        4.3747476289
 C        -9.3666171912        3.2665539256        5.5284040015
 C       -14.1455691216        0.4181580006        0.4194150395
 C       -13.8166970624       -1.6457010440        1.8867017355
 C       -10.3379656003       -1.6735860826       -5.3811593771
 C        -8.3626024114       -1.9546748729       -3.7912826596
 C        -9.2835322587        4.6913189182       -3.9138787778
 C        -6.9849160315        5.0752529027       -2.8875076501
 C       -13.8282257932        5.0896905903        0.8229407667
 C       -14.6017030873        5.7936306203       -1.4704678322
 H       -13.5995912676        9.1962691678        0.0613117696
 H       -14.8734059743        8.1968711282        0.5433893967
 H       -14.4770769977        8.2433201277       -1.0814152115
 H       -12.0415888088        3.2513097186        0.0094012035
 H       -10.9035807563        4.3583464179        0.5350067924
 H       -10.6256309591        3.1105913588       -2.2638137887
 H        -9.8634314395        2.5859989125       -0.6924381191
 H        -6.1123179553        2.6875743764       -4.1831774776
 H        -7.5190745831        2.8318299809       -5.1295308003
 H        -7.1390829127        0.2383598703       -3.4915021055
 H        -6.6264147313        0.3693489640       -5.1903567605
 H       -10.4084461467       -1.9573243407       -1.6941473501
 H       -11.5580865189       -2.2569972537       -3.0357236119
 H       -13.3046461099       -1.5215808107       -1.9144539037
 H       -12.4488622185        0.0851148407       -1.6440864741
 H       -10.2604050708       -0.7114440870        2.1629301483
 H       -11.4171845614       -1.2167039171        3.4050757329
 H        -9.5996282841        0.1313634545        4.3367184911
 H       -11.2003739243        0.8081484234        4.6489827157
 H        -7.6999584630        4.1256257670        1.8879578569
 H        -7.3856166169        3.4211079865        3.4764727305
 H        -6.2938898434        5.3244438840        3.9096900496
 H        -7.8710244589        6.0902473469        4.1672163527
 H        -7.9446758182       11.3185876258        1.2565895966
 H        -6.4581375563       10.5942572305        0.7358455878
 H        -6.5940318752       10.9472360986        2.3645493105
 H        -7.2144778369        8.0164641260        4.9343477702
 H        -8.7236670929        8.0248085254        3.9849438289
 H        -7.8561999449        9.5041180928        4.4121681072
 H        -4.9560107957        7.7643999240        3.4020084664
 H        -5.3501671158        9.5870869915        3.2493873824
 H        -5.0709300144        8.4422096710        1.8681139524
 H       -11.8402260691        4.3767849061        3.5969149331
 H       -11.6359892923        4.2107882875        5.3606542047
 H       -12.2897698953        2.8802544707        4.2698673989
 H        -9.4817503303        4.1752231017        6.2140799615
 H        -8.3582707937        3.0604632602        5.4224206150
 H        -9.6373439620        2.4764969401        6.2089413386
 H       -13.6230350751        1.2561204959       -0.0314896119
 H       -14.7727165057        0.8656728572        1.1354595051
 H       -14.7809661117       -0.0179165511       -0.3703425760
 H       -13.0204651653       -2.2422844009        2.4287491418
 H       -14.4510735019       -2.2944409332        1.2824252559
 H       -14.5242461402       -1.2687745334        2.6771363783
 H        -9.7152810541       -2.0046753924       -6.1273643899
 H       -11.1579515380       -1.0375054326       -5.7454788940
 H       -10.7222311636       -2.4855356525       -4.7355666015
 H        -7.8943063531       -1.4701027261       -2.8985449526
 H        -7.5479201724       -2.0948532322       -4.5348147720
 H        -8.8596910458       -2.8083801764       -3.4984500332
 H        -9.6838508727        5.6882995730       -3.7020155045
 H       -10.1153549910        3.9946666619       -4.0529450013
 H        -8.8065377773        4.7838510037       -4.8829684333
 H        -6.5792661815        5.1535890156       -3.8895798221
 H        -6.2043406713        4.6702936919       -2.1841934793
 H        -7.1338056806        6.1205871132       -2.5711990494
 H       -13.1111415312        4.9216099057        1.5883660292
 H       -14.3719728217        4.1666972239        0.6059260672
 H       -14.6320931511        5.6199917413        1.2991015251
 H       -14.4802381921        6.3266187966       -2.4071071267
 H       -15.4925475423        6.1716249968       -0.9769367857
 H       -14.6321953930        4.7261178409       -1.7865495790
 Na       -9.7033012611        6.7687179555        0.9217172784
