117

 C       -13.9124808503        7.3565327065       -2.3042534928
 C       -12.9518349316        6.9088425875       -1.2337426718
 O       -11.8580775660        7.4709274236       -1.0517507351
 C       -13.3361043582        5.5973142815       -0.4015639792
 C       -12.4496917267        4.4993124941       -0.8766301100
 O       -12.5795182050        4.0399846921       -2.0473197923
 C       -11.2230732377        3.8294962080       -0.0641514651
 C       -10.3067769204        3.0410879413       -0.9683778404
 C        -9.4524036465        4.0462679237       -1.8249465235
 O        -9.3480637195        5.1820770122       -1.4565772953
 C        -8.9194837298        3.5690850454       -3.2467656614
 C        -7.6830510690        2.6964621813       -2.9884469104
 O        -7.0875639653        2.7491597411       -1.9035122335
 C        -7.3091724968        1.6484620835       -4.0778062440
 C        -7.7242980990        0.2360544535       -3.6993605759
 C        -8.9484507857       -0.3402983393       -4.4584337595
 O        -9.2076704066        0.1372620707       -5.5546160789
 C        -9.7739984423       -1.5634169058       -3.8686675523
 C       -10.2348602596       -0.9956754179       -2.4633826861
 O       -10.7993907698        0.0885535416       -2.3782048648
 C       -10.1208118367       -1.9375220052       -1.2287001649
 C       -11.4347274128       -1.8884848661       -0.3247530788
 C       -11.1414742016       -1.4398263954        1.1152066566
 O       -10.0218660084       -1.3436091295        1.4773579261
 C       -12.3166327134       -1.1738790096        2.0929612215
 C       -12.0676780520        0.3635685813        2.5752055331
 O       -12.5737714698        1.2894067235        2.0137080307
 C       -11.0914346809        0.6323928020        3.7344310655
 C       -10.9152681729        2.0503997638        4.3217522146
 C        -9.9055562333        2.9227249836        3.5901809908
 O        -9.0773167875        2.4199632293        2.8867943631
 C        -9.6252962072        4.4819381736        4.0955216036
 C        -9.0538602413        5.1517573517        2.8625471668
 O        -9.8204233662        5.9165261225        2.2863697137
 C        -7.5184563318        5.1108145437        2.4532598057
 C        -6.8153492620        6.4107033909        2.5496684300
 C        -7.3430451842        7.4019016239        1.5169011285
 O        -7.7172805446        6.9956418299        0.4536296953
 C        -7.3857657161        8.9226554580        1.8406311486
 C        -8.5064209884        9.7185284451        0.9702682557
 O        -9.5315816107        9.1741937755        0.6300793840
 C        -8.2928606983       11.2210775816        0.5427524616
 C        -7.6848559582        9.1655379188        3.3768134650
 C        -6.0542548676        9.5895669316        1.4976808746
 C       -10.8419974871        5.2566345972        4.6782388296
 C        -8.5556388106        4.1496775266        5.2228328912
 C       -13.6852349166       -1.3752061730        1.3983993724
 C       -12.1923660416       -2.1159766581        3.3772034326
 C       -11.0241719323       -1.7858384936       -4.6748324407
 C        -8.9460123815       -2.8389629975       -3.6998656230
 C        -9.9418192742        2.7359877734       -4.0545561936
 C        -8.6199999356        4.7745544750       -4.1692373962
 C       -13.1782894284        6.0031205863        1.0693442129
 C       -14.8200204640        5.2380137394       -0.7247833478
 H       -13.5452247628        8.3292215916       -2.6715027567
 H       -14.9564527252        7.6188192534       -1.8836635423
 H       -14.1538713944        6.6524761958       -3.1230439430
 H       -11.6851376863        3.1424685410        0.6157604115
 H       -10.6135785043        4.6042533690        0.4727066975
 H       -10.8762296782        2.3590105098       -1.6230420895
 H        -9.8008803287        2.3018193653       -0.4243668234
 H        -6.2744149464        1.6311922886       -4.1872722874
 H        -7.5992513032        1.8238819121       -5.1130856736
 H        -7.9173221281        0.1317863614       -2.6024214020
 H        -6.9218941623       -0.4959487112       -3.9097114041
 H        -9.2611447030       -1.5727518922       -0.5955265434
 H        -9.8754352994       -2.9450736422       -1.5634065966
 H       -11.7708040531       -2.9019641440       -0.2912666346
 H       -12.1390953685       -1.2183939007       -0.8569675218
 H       -10.0901619265        0.3636841668        3.3407870892
 H       -11.3896931042       -0.0845462679        4.5580703414
 H       -10.6268781259        1.9248509305        5.3695837018
 H       -11.9000241049        2.4754921658        4.3155639438
 H        -7.4346577256        4.7129061741        1.4297248993
 H        -6.9724253046        4.2467442067        2.9383574492
 H        -5.7911037402        6.2063537828        2.3134176590
 H        -6.9749511961        6.8226234546        3.5265384528
 H        -8.9508176053       11.8257087360        1.1573398669
 H        -8.6193151768       11.4893096056       -0.4683907956
 H        -7.3416527458       11.6518030097        0.7940603224
 H        -6.9923150979        8.6364973568        4.0602998566
 H        -8.6820184602        8.9765504662        3.6938389796
 H        -7.4455468786       10.2371764451        3.5768981475
 H        -5.2253117555        8.9398905350        1.8415968393
 H        -6.0419650146       10.6350419893        1.8845595370
 H        -5.9537717606        9.7603976898        0.4491970553
 H       -11.4334210428        5.7193752525        3.9475831442
 H       -10.4531479081        6.0374582400        5.4059951806
 H       -11.4369937709        4.5752965558        5.2519682240
 H        -8.1889211568        5.1143595456        5.7232747529
 H        -7.7744111219        3.5738782410        4.7689209066
 H        -9.0483583573        3.5137141659        5.9761027435
 H       -13.9419919170       -0.4880167779        0.8033520532
 H       -14.4574050831       -1.5271824196        2.0668534105
 H       -13.5982791398       -2.2581459553        0.8025093997
 H       -11.0811948233       -2.2463191285        3.5678595368
 H       -12.6401712103       -3.0778884591        3.1694186784
 H       -12.7570799409       -1.6662661820        4.2056028947
 H       -10.8635834808       -2.1448237848       -5.6373902633
 H       -11.6115572589       -0.8588018610       -4.6876626902
 H       -11.6700332062       -2.5403080152       -4.1951931950
 H        -8.0268493816       -2.6518392730       -3.0942710908
 H        -8.4799392938       -3.3368439960       -4.6017974676
 H        -9.5224867343       -3.5782601356       -3.1876597987
 H       -10.8516562589        3.3317164485       -4.1695517113
 H       -10.2646576187        1.8664202006       -3.4098751890
 H        -9.6476294188        2.4237229126       -5.0394012775
 H        -7.8609940624        4.5270761566       -4.8469927601
 H        -8.3497384633        5.6827552872       -3.5640005955
 H        -9.5115978522        4.9887296321       -4.7083666340
 H       -12.1745788979        6.4478795175        1.2209249982
 H       -13.5118378141        5.1214854461        1.6498866438
 H       -13.9533471430        6.7358139967        1.2958937250
 H       -14.7974065455        5.0855721743       -1.8174169884
 H       -15.5426097585        6.0433940240       -0.4644135967
 H       -15.0430254032        4.2376483402       -0.2853033695
 Na       -9.9622718904        6.8708241794        0.2141775052
