117

 C       -13.5105329859        7.2116122690       -2.6512786508
 C       -12.9669644170        6.8864675075       -1.2895129712
 O       -11.8965627507        7.3875635004       -0.9598153667
 C       -13.5742361962        5.7339191561       -0.4466581381
 C       -12.6710600221        4.6301690209       -0.9238607489
 O       -12.8395513806        4.1414979588       -2.0677607891
 C       -11.5980957181        3.9702854620        0.0208002819
 C       -10.5228972282        3.2882830382       -0.8665638691
 C        -9.9611783068        4.1970810992       -1.9782366616
 O        -9.8633461529        5.3840456103       -1.8000730094
 C        -9.3700414842        3.5248018108       -3.2475333372
 C        -8.1790547635        2.5447976914       -2.6730741071
 O        -7.9904573713        2.5312981871       -1.4517743672
 C        -7.5193449194        1.5144330879       -3.6392577297
 C        -7.7639375239        0.0553983073       -3.2907483428
 C        -8.9784159275       -0.5331045704       -4.0931561152
 O        -9.3746722311       -0.0772067806       -5.1027495785
 C        -9.5249430887       -1.9597001004       -3.5160436801
 C       -10.1190405544       -1.4980360834       -2.1523803865
 O       -10.3400161243       -0.3397022575       -1.7997888509
 C       -10.4794317087       -2.7018688723       -1.2330214338
 C       -11.5226681719       -2.4031195759       -0.1766236725
 C       -10.9948180080       -1.5851495868        1.0159420292
 O        -9.8054807102       -1.5081355836        1.1583816742
 C       -11.9608528444       -1.2095549637        2.1596467207
 C       -11.8342408449        0.4260286326        2.4236139974
 O       -12.7361210382        1.1215327835        2.0170633664
 C       -10.6403948145        0.9496374805        3.1479818756
 C       -10.7833371116        2.4090701164        3.7191434329
 C        -9.4786738949        3.0420346383        3.6162708130
 O        -8.5116915891        2.4879016405        3.1193337819
 C        -9.2613850064        4.6665679340        4.0898607452
 C        -9.0241579314        5.3873157973        2.7896940824
 O        -9.9559005272        6.0314582307        2.3378591184
 C        -7.6430357714        5.3463301469        2.1025325435
 C        -6.8384631303        6.6704220654        2.3805040381
 C        -7.2796153052        7.6530965286        1.3121849056
 O        -7.4655757135        7.3268081056        0.1788509536
 C        -7.4435513146        9.2592330973        1.6112402873
 C        -8.4571156623        9.8488144685        0.6165856347
 O        -9.3701199316        9.2010665266        0.1723983136
 C        -8.4766402853       11.4039651700        0.4591922871
 C        -7.9433290589        9.6818341378        3.0913422479
 C        -6.0109761199        9.7814863123        1.3800208244
 C       -10.5135484166        5.1476791107        4.7402476828
 C        -8.0360793130        4.5902332723        5.0847984106
 C       -13.4491806451       -1.3836324047        1.8137203807
 C       -11.5652454536       -1.9924298510        3.4437029974
 C       -10.6415510112       -2.6084617018       -4.3600797465
 C        -8.3715833618       -2.9834223592       -3.3489214004
 C       -10.4431659628        2.5916717608       -3.9521947621
 C        -8.7977204687        4.5627018616       -4.3506051710
 C       -13.4335357438        6.0664501000        1.0767202804
 C       -15.0551703860        5.4349875490       -0.7629216390
 H       -12.8611413364        7.8258320509       -3.1016800793
 H       -14.4826149654        7.7060164789       -2.5703434145
 H       -13.6040719843        6.3691106318       -3.2912470315
 H       -12.2057122242        3.2441720591        0.5418748416
 H       -11.2397962874        4.7114808416        0.7402933228
 H       -10.7490071930        2.2130387368       -1.1105176135
 H        -9.6093209887        3.2311385129       -0.2346565071
 H        -6.4606001819        1.7535587531       -3.4036236761
 H        -7.7023233630        1.6552915254       -4.7737517843
 H        -8.0730034301        0.0771660056       -2.2335160461
 H        -6.8758428817       -0.5239567347       -3.3986078878
 H        -9.5663700017       -3.0551628462       -0.8196674028
 H       -10.7182647524       -3.5252366462       -1.9052442279
 H       -12.0409991160       -3.3774907145        0.1163373427
 H       -12.3447083042       -1.8574146486       -0.6007810433
 H        -9.7951636978        0.9028461180        2.4826115039
 H       -10.5182161986        0.1155636847        3.9002380106
 H       -11.2732608847        2.3483892725        4.7461603368
 H       -11.4828854273        3.0366223682        3.1461554270
 H        -7.8159072211        5.2423750252        1.0683235816
 H        -7.1855411167        4.4244281155        2.4666715247
 H        -5.7723050779        6.4240748836        2.3767578297
 H        -6.9614498099        7.1041164845        3.4013300961
 H        -7.5999299889       11.9602338785        0.6714001502
 H        -9.2662589853       11.7991280855        1.1167602942
 H        -8.7519368469       11.7109745637       -0.5399206115
 H        -7.1153821793        9.5036528134        3.7957250944
 H        -8.8146891447        9.2416669966        3.5069473398
 H        -8.1068699106       10.7721736366        3.0549189025
 H        -5.1996908155        9.1097763143        1.4449508240
 H        -5.7562451217       10.4977285757        2.1547095296
 H        -5.8782884422       10.2025818564        0.4447250097
 H       -11.3077076007        5.4890763128        4.1558258912
 H       -10.2886518518        5.9962139000        5.4924189466
 H       -10.9336991878        4.3564308493        5.3404702952
 H        -7.7883161424        5.5250360997        5.6229742619
 H        -7.1671148799        4.2751948291        4.5729232427
 H        -8.3268059126        3.8964134234        5.8761301346
 H       -13.8055693361       -0.8482979124        0.8918866825
 H       -14.0203683840       -1.1002748597        2.6640534709
 H       -13.7042157273       -2.4065207417        1.5779655572
 H       -10.5126303749       -1.7514924549        3.6858076968
 H       -11.6092005429       -3.0331603500        3.3496333999
 H       -12.1685080416       -1.6262773239        4.2245314548
 H       -10.3118110071       -2.6643558079       -5.3764779888
 H       -11.5858885533       -1.9901143931       -4.4625706290
 H       -10.9978310467       -3.5884882024       -3.9440318517
 H        -7.5781286055       -2.5647611033       -2.7277031289
 H        -8.0191131898       -3.2341580347       -4.3780327464
 H        -8.6836445861       -3.9100144760       -2.9399831821
 H       -11.3929939275        3.0718857482       -3.8236555843
 H       -10.5523436239        1.5914608658       -3.4636634554
 H       -10.2290691211        2.3957484897       -4.9711787500
 H        -9.3632813647        4.4336747502       -5.2121367150
 H        -7.7512158704        4.2728614794       -4.5911535499
 H        -8.8529449758        5.5802938454       -4.0875681044
 H       -12.4248917854        6.2111709313        1.4334756889
 H       -13.8078369720        5.1652289569        1.5706051293
 H       -14.1019413447        6.8621084637        1.1527130147
 H       -15.1217310967        5.3206889290       -1.8630158406
 H       -15.7670838525        6.2171030725       -0.3886531913
 H       -15.2504233565        4.4376892256       -0.3238662889
 Na      -10.0774999977        6.9797082829        0.1453362263
