117

 C       -13.7923025314        7.5064430381       -2.1302741517
 C       -12.8631114584        6.8820548033       -1.1682022458
 O       -11.7562866189        7.3574744812       -1.1146897308
 C       -13.3494673917        5.5193974342       -0.3857537568
 C       -12.3927177734        4.3726663411       -1.0310083975
 O       -12.5554693955        4.0764861019       -2.1492024421
 C       -11.3948802959        3.7157436070       -0.1333505531
 C       -10.1874926701        3.1346618101       -0.9504152205
 C        -9.4345664721        4.0986990698       -1.8269113068
 O        -9.3095827221        5.2962217642       -1.5370872808
 C        -8.8849780504        3.5843272497       -3.2018056896
 C        -7.6129566641        2.6547060738       -2.9638392750
 O        -7.0026556422        2.7114608313       -1.9514085653
 C        -7.1783539348        1.6293511083       -4.0636014562
 C        -7.8148120154        0.2647119473       -3.6717991204
 C        -8.9974938483       -0.2323479066       -4.5529064724
 O        -9.2112091113        0.1757977557       -5.6281977930
 C        -9.8323575445       -1.4093532145       -3.9491652893
 C       -10.3225463346       -0.9034093841       -2.5325447486
 O       -10.8579550744        0.1669449857       -2.4226512006
 C       -10.1695391426       -1.6915584667       -1.1950992747
 C       -11.2834618633       -1.3055417151       -0.2662330709
 C       -11.0383538704       -1.2670754061        1.1762767931
 O        -9.9139071175       -1.4772605937        1.6603175355
 C       -12.2789934365       -1.0872319790        2.0793923966
 C       -12.1536896220        0.3646631871        2.6808518968
 O       -12.7200831855        1.3217405435        2.1570753986
 C       -11.2104283127        0.5614213673        3.8533082497
 C       -11.1481284435        2.1162100006        4.1151897256
 C        -9.8852041392        2.7693352392        3.6059516874
 O        -9.2581448783        2.2931132540        2.6674806591
 C        -9.6318343629        4.2363887901        4.1424460303
 C        -9.0555607057        5.0708113195        2.9114079758
 O        -9.8474061261        5.8027028475        2.3197298102
 C        -7.6037543127        4.9661710223        2.4649256486
 C        -6.9309673497        6.4158290328        2.5930407244
 C        -7.3933405769        7.3922076035        1.5279707566
 O        -7.5298801219        7.0488092476        0.3694107580
 C        -7.3836831539        8.9000329610        1.8620278153
 C        -8.5055822880        9.6384208653        0.9850502061
 O        -9.5231623647        9.0674420747        0.7132599531
 C        -8.3418256739       11.1972401142        0.7936173599
 C        -7.7291042148        9.2303776335        3.3519770720
 C        -5.8964674158        9.3288839827        1.5184320792
 C       -10.9851273156        4.8499496860        4.5819781051
 C        -8.6025411233        4.2707062935        5.3641406150
 C       -13.6939146348       -0.9849226433        1.3396642234
 C       -12.2887497089       -2.2188906293        3.1359904950
 C       -11.1203247072       -1.6811789054       -4.7793281619
 C        -8.8490297400       -2.6557821014       -3.9326730072
 C       -10.0276519842        2.8181814216       -3.9926535435
 C        -8.4024032873        4.8391728790       -3.9465272038
 C       -13.0520489471        5.7430028911        1.1606273128
 C       -14.7982478773        5.0619171577       -0.5749777074
 H       -13.3581349008        8.3049564804       -2.6465161980
 H       -14.7213596923        7.8587274201       -1.7622317921
 H       -14.1332791882        6.6813725948       -2.7995963854
 H       -11.9828861013        2.8852726465        0.3591729519
 H       -11.1212124681        4.4581680716        0.5868551699
 H       -10.4538812018        2.2445745012       -1.4924598241
 H        -9.4072153531        2.6705894281       -0.2733228955
 H        -6.0573602236        1.4988059921       -4.0133885054
 H        -7.3495230074        1.8759142780       -5.0936283552
 H        -8.0228806242        0.2312348674       -2.6212535721
 H        -7.1251429290       -0.5698499219       -3.8230211801
 H        -9.2182835421       -1.5271962231       -0.6766394456
 H       -10.2603368613       -2.7610786867       -1.4624928876
 H       -12.0612894207       -2.0672577554       -0.4751185517
 H       -11.5775662478       -0.2862532176       -0.5220338857
 H       -10.1993093070        0.1601297274        3.8038295990
 H       -11.7636339794        0.1336212842        4.6630147267
 H       -11.1882615617        2.1680698449        5.2099727178
 H       -12.0587713917        2.6156083074        3.6893069066
 H        -7.5716206101        4.4912782353        1.4752156549
 H        -7.0978914940        4.2105794713        3.0290770823
 H        -5.8478057363        6.2524525942        2.3338761401
 H        -7.1352729389        6.8381742475        3.6096552284
 H        -9.2274776828       11.8491518539        0.7898841231
 H        -7.9674100845       11.3886505839       -0.2256462303
 H        -7.5652810931       11.6386853981        1.4833371733
 H        -6.8451812725        9.3210116163        3.9526032835
 H        -8.4561422343        8.5113577578        3.8016740121
 H        -8.1936508266       10.1932319843        3.4330878891
 H        -5.1731607700        8.7341341652        2.1030737511
 H        -5.8287948138       10.3855514159        1.7464214289
 H        -5.6772561902        9.3221884612        0.4180854907
 H       -11.7813654557        4.6407302399        3.7672570477
 H       -10.9405192027        5.9176376629        4.6180663564
 H       -11.2901512890        4.4310991842        5.5741960749
 H        -8.1876820758        5.2511284451        5.4227020097
 H        -7.8812421336        3.4500091588        5.3403593603
 H        -9.2276369843        4.0626577471        6.2124899660
 H       -13.7247179799       -0.2819764537        0.5171897210
 H       -14.3528604978       -0.5557462078        2.1547470547
 H       -14.0900847950       -1.9993310975        1.0866600996
 H       -11.3125937372       -2.3568603843        3.5414699430
 H       -12.5855614571       -3.1691250712        2.6112197187
 H       -13.0718810104       -1.9590348458        3.8855614161
 H       -10.8667109739       -1.8133672366       -5.8522043125
 H       -11.8178751663       -0.8996364254       -4.6287569708
 H       -11.5472635150       -2.6617553679       -4.5521923145
 H        -7.9707576254       -2.6473754542       -3.2874761949
 H        -8.4679654682       -2.8405062348       -4.9285490658
 H        -9.3932923122       -3.5972847995       -3.6988836533
 H       -10.9629568931        3.3978369209       -3.8912772923
 H       -10.2287525052        1.8188531708       -3.6873727941
 H        -9.8016803116        2.8557290429       -5.0817742986
 H        -8.2307118523        4.6369488120       -5.0622771510
 H        -7.5257918893        5.2458433524       -3.4994308711
 H        -9.2397499605        5.5740434499       -3.7811133773
 H       -12.1768793846        6.3745500566        1.1595241508
 H       -12.9970458171        4.8045678452        1.6401307331
 H       -13.8401769925        6.3346340538        1.6700558076
 H       -14.9092720170        4.6259805924       -1.5442044898
 H       -15.4832695347        5.8753074693       -0.4356098329
 H       -15.0259421838        4.3553519881        0.2057632542
 Na       -9.8909392613        6.7729501741        0.1200543959
