117

 C       -13.7911249114        7.1416099991       -2.6184923677
 C       -13.0594827851        6.9916065883       -1.3009409575
 O       -12.0653879976        7.6039943474       -0.9358180168
 C       -13.4978410795        5.7346721883       -0.4477939806
 C       -12.6662767637        4.5519084512       -1.0581620387
 O       -12.7892454119        4.1488573794       -2.2235277917
 C       -11.4982668066        3.9047100108       -0.1218198427
 C       -10.3600405565        3.2459084715       -0.8778843287
 C        -9.7300772923        4.1617224171       -1.9165021243
 O        -9.6399873796        5.3488154742       -1.7705151273
 C        -9.1625481008        3.5232935947       -3.2375724987
 C        -7.9641278684        2.6184150371       -2.8270658382
 O        -7.3950875765        2.6112203196       -1.7326356810
 C        -7.4285591272        1.6290958315       -3.9206827878
 C        -7.6466239952        0.1818846063       -3.5279303938
 C        -8.8352088204       -0.4700661103       -4.3029290141
 O        -9.1863431234       -0.0817064567       -5.3582341783
 C        -9.6172081346       -1.6965534514       -3.6629205403
 C       -10.2328008039       -1.4229038594       -2.2279093161
 O       -10.6639671000       -0.3320714373       -1.9931378050
 C       -10.3894673585       -2.5489555896       -1.1781357357
 C       -11.4550723812       -2.2474858500       -0.1201714554
 C       -10.9850009745       -1.4713385740        1.1761871372
 O        -9.8275151948       -1.1925566493        1.4443163443
 C       -12.1433467163       -1.1153119815        2.2198534382
 C       -11.9247429318        0.3645361897        2.5878025855
 O       -12.5509121243        1.1708957312        1.9517081137
 C       -10.8038497110        0.8102641138        3.5151663373
 C       -10.8914935469        2.3067342132        3.7570299151
 C        -9.5440473737        3.0311267284        3.5055813392
 O        -8.7447673885        2.6998208859        2.6595425343
 C        -9.3899717302        4.4924615670        4.2068733245
 C        -9.1022613667        5.3029884777        2.9723494656
 O        -9.9574324888        6.0330882155        2.4190126217
 C        -7.6627436851        5.2706757082        2.3718602562
 C        -6.9787029839        6.6212789646        2.4847667861
 C        -7.3473064414        7.5678186102        1.4097687313
 O        -7.5490768732        7.1506691052        0.2867791263
 C        -7.4111577617        9.0196511160        1.7465931144
 C        -8.5152359161        9.7843130035        0.8597213819
 O        -9.4448047722        9.1463840924        0.4896650031
 C        -8.3543096527       11.2408665374        0.4534744521
 C        -7.7898869935        9.3159174452        3.2174009607
 C        -5.9465443838        9.6401268209        1.5216114302
 C       -10.6911010305        4.9056226849        4.9423132931
 C        -8.1855278607        4.4405083677        5.2870255591
 C       -13.5880048470       -1.2992891024        1.7215416863
 C       -11.8696742006       -2.0845486836        3.4033045767
 C       -10.8549488410       -2.0611867289       -4.5373044303
 C        -8.6306056798       -2.9052649417       -3.5958335173
 C       -10.4443347215        2.7088170650       -3.8666445323
 C        -8.6896366082        4.5437772818       -4.2465790562
 C       -13.2040636201        6.0051289952        1.0536856939
 C       -15.0021043679        5.4005681430       -0.7158748059
 H       -13.3930093719        7.9150151805       -3.2167334174
 H       -14.9063470939        7.3267296708       -2.4343241733
 H       -13.7698893351        6.1523178174       -3.2273733726
 H       -11.9240849624        3.1719653669        0.5647918496
 H       -11.0868465137        4.7766928062        0.4882297303
 H       -10.5037555530        2.2065019837       -1.1986692312
 H        -9.6357589338        3.0941584699       -0.1194395073
 H        -6.3995876751        1.6991582601       -4.0662530344
 H        -7.8782632034        1.8400940158       -4.8628388311
 H        -7.8243058383        0.2192696533       -2.4416348834
 H        -6.7289464819       -0.3905693297       -3.7127840938
 H        -9.3647903298       -2.6349614721       -0.6932024631
 H       -10.4406405031       -3.4790380242       -1.7355600094
 H       -11.9920799369       -3.1557048387        0.0904125205
 H       -12.1664868550       -1.4945200992       -0.5830632834
 H        -9.8509508689        0.5340076548        3.0976279105
 H       -10.9294659544        0.2824700529        4.4618984686
 H       -11.3982714455        2.3466401247        4.7152180603
 H       -11.6107003418        2.7867703796        3.0777696705
 H        -7.7744980164        4.9321927026        1.3112148611
 H        -7.0457370894        4.4124954975        2.7831584863
 H        -5.8668291276        6.4504713889        2.4586469620
 H        -7.1930262373        7.0436815014        3.4850061062
 H        -7.5897165930       11.8086315458        0.9632752718
 H        -9.3085846666       11.7815958064        0.6244884249
 H        -8.0456193348       11.3488547101       -0.6365105102
 H        -7.0244804421        9.0226482827        3.9445707379
 H        -8.6602385232        8.8006150249        3.5479451276
 H        -7.9487523766       10.4092902659        3.2937079162
 H        -5.2916285355        9.2954344215        2.3930853856
 H        -5.9469290663       10.7757386211        1.5967319619
 H        -5.3625395976        9.3330638982        0.6743082266
 H       -11.6001134706        4.5812019043        4.4443132432
 H       -10.6871181302        5.9905556473        5.1687413894
 H       -10.7962381377        4.4332376071        5.9282877794
 H        -7.6454909322        5.4243466854        5.5237648096
 H        -7.4719270627        3.7736165418        4.9338249466
 H        -8.6465217598        4.1619237234        6.2159358626
 H       -13.8140582292       -0.8768118608        0.7133757899
 H       -14.2185959526       -0.7906966310        2.4145390782
 H       -13.8951677132       -2.3777788912        1.7910624592
 H       -10.7700615701       -2.1679815322        3.5556721971
 H       -12.3307144450       -3.0617814225        3.2008521067
 H       -12.3906078968       -1.7132328494        4.3340229809
 H       -10.5810956271       -2.0341899436       -5.5368938144
 H       -11.6365403039       -1.3448539518       -4.4711912966
 H       -11.3073510739       -3.0384249276       -4.2468169158
 H        -7.7776552465       -2.6852144701       -2.8891124662
 H        -8.0848719967       -3.0647915819       -4.5784667067
 H        -9.1088151233       -3.7741736371       -3.2946037682
 H       -11.2852756704        3.4162510581       -3.9564486529
 H       -10.8553450142        1.8798642726       -3.2514554389
 H       -10.2175753390        2.3681564472       -4.8619918221
 H        -8.6273984056        4.0475046599       -5.2328999465
 H        -7.7653868875        5.0660921385       -3.9226283024
 H        -9.4919058625        5.3219868775       -4.3629969953
 H       -12.2738417834        6.6207945940        1.1206819462
 H       -13.2020301251        5.1237131233        1.6408867821
 H       -14.1450803984        6.5483367127        1.2881535776
 H       -15.1451655353        4.9370882932       -1.6532111027
 H       -15.4760503588        6.3340184264       -0.7191804111
 H       -15.3758133131        4.6974672725        0.0184830970
 Na       -9.8752927420        6.8366737683       -0.0386092136
