117

 C       -13.5651505913        7.3722958922       -2.7020708875
 C       -13.0041106105        6.9949113902       -1.3141479140
 O       -12.1080660489        7.6466670793       -0.7697412842
 C       -13.6601220933        5.8919921054       -0.5430111158
 C       -12.8788392391        4.5631628015       -0.8737102668
 O       -13.1041525456        3.9158557613       -1.9010148081
 C       -11.8429303731        3.9839894186        0.1601957678
 C       -10.7620317755        3.2266871814       -0.6759749240
 C       -10.0545780564        4.0273170401       -1.7901283809
 O        -9.8568672929        5.1992422147       -1.5780644776
 C        -9.4719294468        3.3749386181       -3.0385647612
 C        -8.3458923542        2.4248732060       -2.6460846464
 O        -7.9345404761        2.3532327592       -1.4823122857
 C        -7.7044983915        1.5404957767       -3.7331163118
 C        -7.6216847395        0.0388798966       -3.3596701203
 C        -8.8706447378       -0.6082459399       -3.9294631078
 O        -9.4812509306       -0.1499594861       -4.8550077181
 C        -9.3061343326       -2.0434339381       -3.3613648580
 C       -10.0590031022       -1.7615737744       -2.0016802169
 O       -10.3224013525       -0.6269454475       -1.5900996679
 C       -10.5575044570       -2.9938628679       -1.1920202923
 C       -11.7272542220       -2.5027199920       -0.1768501657
 C       -11.1282280334       -1.7177710281        1.0446349902
 O        -9.9882521409       -1.4008523960        1.0944371955
 C       -12.0244448410       -1.2056217468        2.2781550414
 C       -11.8042354276        0.3469906049        2.3372423239
 O       -12.6963850510        1.0510788534        1.9285266580
 C       -10.4189154852        0.9498444702        2.8243950009
 C       -10.4647772071        2.2935151798        3.4214650731
 C        -9.1963538063        3.0170966283        3.6454596137
 O        -8.0891506328        2.5053057546        3.7024945699
 C        -9.1514041642        4.6326790866        4.0413562244
 C        -8.9904646138        5.4703769678        2.6889461925
 O        -9.9207195998        5.9145316710        2.0738234803
 C        -7.5271400995        5.4735108136        2.1231215052
 C        -6.8253461361        6.8562522590        2.1562875785
 C        -7.3651198879        7.8155700526        1.0746955209
 O        -7.5145090545        7.4065650479       -0.0380760823
 C        -7.4607097408        9.3606799148        1.4080541796
 C        -8.5569300950       10.0627835865        0.5627117701
 O        -9.4056872215        9.4822467747       -0.0795532347
 C        -8.6052324666       11.6380756445        0.4412419648
 C        -7.8690116603        9.5654433142        2.9036860339
 C        -6.0664203217       10.0429443222        1.1123682376
 C       -10.4541893286        5.1208338178        4.6335344887
 C        -7.9630240221        4.8957107978        5.0459669521
 C       -13.5057449525       -1.6084390812        2.1090793748
 C       -11.5268020698       -1.8699522998        3.6028946952
 C       -10.2006234801       -2.6295128361       -4.4896552778
 C        -8.0769055872       -2.9256992517       -3.1606819747
 C       -10.7384793818        2.7212323729       -3.8075581608
 C        -8.7878772845        4.4729929284       -3.9624993049
 C       -13.6604355429        6.1367685763        1.0113857716
 C       -15.1543913188        5.6016693232       -0.9698011996
 H       -13.0113944477        8.1119449574       -3.2436699659
 H       -14.6871348792        7.6784347782       -2.6719836014
 H       -13.4699965859        6.4649582468       -3.3327066849
 H       -12.4369540121        3.2887399611        0.8046565126
 H       -11.4425823952        4.7486175455        0.7865774322
 H       -11.2327132492        2.3395692414       -1.0671844934
 H        -9.9514511332        2.9048494250        0.0087750086
 H        -6.7021816384        1.9474529148       -3.7184827723
 H        -8.1883199224        1.6127002482       -4.7235117390
 H        -7.4823478890       -0.0740477744       -2.2697947967
 H        -6.7329917236       -0.4245304278       -3.8402210349
 H        -9.6517717945       -3.4340403001       -0.7830289157
 H       -10.8612400154       -3.7890827589       -1.9313395864
 H       -12.3948938462       -3.3439574580        0.1463466286
 H       -12.4624384493       -1.9208424370       -0.6510275364
 H        -9.7328175840        0.8859109069        1.9506790450
 H        -9.9674836596        0.1355385603        3.4479542870
 H       -11.0822847630        2.2434010230        4.3206428721
 H       -11.0581695951        2.8452825975        2.7246544366
 H        -7.6668337211        5.0886768767        1.0876070658
 H        -6.9956372905        4.7506998386        2.7586227486
 H        -5.7814573794        6.6900092258        2.0753542266
 H        -6.8711447575        7.2150470254        3.1811201891
 H        -7.6199879797       12.0980729515        0.2300776388
 H        -9.1412097997       12.2538178902        1.1909258181
 H        -9.1439285357       11.7675215458       -0.4729942488
 H        -7.0641496489        9.1320913553        3.5145197122
 H        -8.8138122164        9.0424527790        3.0669086064
 H        -8.0247146768       10.5879492243        3.2446438473
 H        -5.2474245328        9.7576976672        1.7823650702
 H        -6.1222297190       11.1378716383        1.3861702799
 H        -5.6572545963        9.9773262602        0.0776961418
 H       -11.3181054722        4.9673213028        4.0708828411
 H       -10.4682674583        6.2442528937        4.7058449983
 H       -10.6507579769        4.7289677350        5.6092676743
 H        -7.7055835331        5.9286068912        4.8967910580
 H        -7.0535529282        4.2847093198        4.7761993639
 H        -8.1032726198        4.6588940297        6.1291753385
 H       -13.8815893683       -1.2549940405        1.1364890547
 H       -14.1703912084       -1.2084277425        2.8828159557
 H       -13.6567738128       -2.6467438046        2.0188830718
 H       -10.3980298966       -1.7491301943        3.7723010536
 H       -11.6804611644       -2.9700715803        3.6212957945
 H       -11.9835547794       -1.3512427734        4.4459207523
 H        -9.6465100383       -3.0001908882       -5.3368402375
 H       -10.8904737796       -1.8498058480       -4.8577333992
 H       -10.8233126630       -3.3948766967       -4.1408996039
 H        -7.6302615505       -2.5634200023       -2.2488975600
 H        -7.4757797830       -2.9776862011       -4.0628865943
 H        -8.3879548331       -3.9979476973       -2.9690427233
 H       -11.4683690311        3.4966415434       -4.0163274605
 H       -11.1684677729        1.8375616479       -3.2900511576
 H       -10.3975026563        2.2602428090       -4.7497798967
 H        -9.3029211068        5.4129972290       -3.9403495223
 H        -8.7710114322        4.1027311572       -5.0542454538
 H        -7.7731352341        4.6429531648       -3.5942340896
 H       -12.6155810427        6.3090925700        1.2873460887
 H       -13.9592047170        5.1394670384        1.5007189789
 H       -14.2227476876        7.0290331938        1.1875463402
 H       -15.0702907017        5.0511458471       -1.8971571186
 H       -15.7217636451        6.5176422634       -1.1673311824
 H       -15.7178832978        5.1380092026       -0.2165630158
 Na       -9.7418099853        6.8839300174       -0.0998335525
