117

 C       -14.5168864572        8.0051791364       -2.4222115492
 C       -13.6284386899        7.3726308768       -1.4067220214
 O       -12.4551739582        7.7433204203       -1.2247687746
 C       -14.2963490599        6.2523936387       -0.4773062557
 C       -13.7175695271        4.9082588090       -1.2163821193
 O       -14.0942382094        4.5822293585       -2.3345733349
 C       -12.7603588119        3.9908446415       -0.4477547990
 C       -11.9260379901        3.2016331986       -1.4594291510
 C       -10.6867544445        3.8826884759       -2.0283105951
 O       -10.2698159942        4.9772727730       -1.6783967867
 C        -9.8550256503        3.1134717467       -3.0827192787
 C        -8.8126226149        2.2822771087       -2.1360247344
 O        -8.7607305715        2.5769613020       -0.9263811456
 C        -8.0759210757        1.1601560415       -2.8997581618
 C        -7.7409804475       -0.1488815815       -2.1132694823
 C        -8.0323663472       -1.3863791916       -2.9844034978
 O        -7.8316723848       -1.5015062609       -4.1443209258
 C        -8.7427670517       -2.5567400183       -2.1137390757
 C       -10.0267406305       -1.9257979899       -1.5701094505
 O       -10.3662873162       -0.7702116521       -1.8273739058
 C       -10.9589854267       -2.7608796171       -0.6496635419
 C       -11.7441389333       -1.9822926455        0.4340406551
 C       -10.7674779738       -1.5374937348        1.5239694664
 O        -9.6129731986       -1.8736888496        1.4943256055
 C       -11.3199615171       -0.7436240570        2.8176213381
 C       -10.7694460124        0.7237409140        2.5381968221
 O       -11.4525642120        1.6271521085        2.0936583337
 C        -9.2270010508        0.9497545627        2.7670064202
 C        -8.7706178569        2.4727936223        2.4460677745
 C        -7.9793077245        3.2606753937        3.4578570834
 O        -7.0293605508        2.8685897517        4.0374481374
 C        -8.4877624040        4.8594944930        3.7334597653
 C        -8.5733537606        5.4639637582        2.3017746738
 O        -9.6743096581        5.7059909012        1.7622103049
 C        -7.2217206907        5.6488310297        1.5702175412
 C        -6.9243982644        7.1817241397        1.3719421782
 C        -7.6338608686        7.8169741455        0.1716173363
 O        -8.2813433033        7.0302780010       -0.5107718378
 C        -7.7675755006        9.3596370952        0.0053559660
 C        -9.2871405992        9.6900186649        0.1171309516
 O       -10.1123384576        8.8093393739       -0.0421895756
 C        -9.7905046826       11.1309383675        0.2853338038
 C        -6.9536113107       10.1183353536        1.0874381421
 C        -7.2813628714        9.8985708479       -1.4359358511
 C        -9.8672306469        4.8962022012        4.4680744250
 C        -7.4979531292        5.5836820615        4.6305954595
 C       -12.8932117406       -0.6908431555        2.8137319495
 C       -10.8060049922       -1.3465458283        4.0448434376
 C        -9.0815742434       -3.7222239936       -3.1272195173
 C        -7.8654399897       -3.0237550947       -0.9228290715
 C       -10.7056965468        2.0306484546       -3.8805535960
 C        -9.0650119078        4.0917235209       -4.0521384991
 C       -13.8825581490        6.3751479969        0.9975135147
 C       -15.8678147635        6.1536374656       -0.4900797433
 H       -14.1155082728        8.8628196095       -2.8698347654
 H       -15.5224794368        8.3015394720       -1.9367680445
 H       -14.7375196856        7.2425253307       -3.2008322427
 H       -13.3544751014        3.3692679625        0.2384524420
 H       -12.1380750210        4.6037324955        0.1927250602
 H       -12.5809826899        2.8256393726       -2.2864816866
 H       -11.4174950807        2.2821858047       -1.0914505797
 H        -7.0669846029        1.5373594138       -3.0703517754
 H        -8.4984576411        0.9793517685       -3.9422412510
 H        -8.3383667107       -0.1785032378       -1.1778623840
 H        -6.7205519972       -0.2299305586       -1.7990025416
 H       -10.4925293340       -3.5810253885       -0.1256184503
 H       -11.7137380138       -3.3063085300       -1.2332404170
 H       -12.5728621692       -2.6450397192        0.8885975275
 H       -12.1608007032       -1.0851449956        0.0614607812
 H        -8.6210308736        0.2685018484        2.1570774501
 H        -8.9631827675        0.7148471047        3.8202571233
 H        -9.6798020060        3.0854915052        2.2050176946
 H        -8.2408759548        2.3257697036        1.5314271567
 H        -7.1546802109        5.1591389214        0.6115573251
 H        -6.3706640529        5.2157389816        2.1649005901
 H        -5.8596765351        7.2655129749        1.2299329084
 H        -7.1452567975        7.7542573274        2.2926328968
 H        -9.5813511251       11.5667895782       -0.7342234505
 H        -9.2641083025       11.7454474272        1.0498998513
 H       -10.7858712101       11.2846926784        0.5806295167
 H        -5.9254568813        9.8127848692        0.9717582029
 H        -7.2924271576        9.8310326470        2.0821753989
 H        -7.0940380680       11.1948512202        1.0466168856
 H        -6.4734264148        9.1938979956       -1.6924462713
 H        -6.9702245160       10.9098543894       -1.4281806990
 H        -8.0977720763        9.7947052223       -2.1826883987
 H       -10.6485026295        4.6726618070        3.7156140808
 H       -10.0118594649        5.8814764006        4.8101828501
 H        -9.7799950653        4.2987876357        5.3660850649
 H        -7.7450911390        6.6279889062        4.7848168626
 H        -6.4522574683        5.4796528752        4.1822692912
 H        -7.4257409998        5.0294295278        5.5747681701
 H       -13.2546925959       -0.1003212617        1.9843099886
 H       -13.2253492942       -0.1931452886        3.7335655498
 H       -13.3779061542       -1.7249983013        2.8788751583
 H        -9.7763396201       -1.4418407628        3.9636784658
 H       -11.2878474980       -2.2818733594        4.2081494439
 H       -11.0392237857       -0.7978942554        4.9616547148
 H        -8.2997031437       -3.6837142889       -3.9047150210
 H       -10.0531948323       -3.5327988953       -3.5217013086
 H        -8.9985358189       -4.7415299991       -2.7472477697
 H        -7.7939869804       -2.2412281177       -0.1398084137
 H        -6.8482311754       -3.2877927280       -1.3259715143
 H        -8.3706487554       -3.8689871113       -0.4099662088
 H       -11.7048138027        2.4454075142       -4.0374993180
 H       -10.8151636432        1.1620981970       -3.3209907989
 H       -10.3580064977        1.8507924136       -4.8800837628
 H        -9.2307676473        5.1571162511       -3.7316136891
 H        -9.4053011920        4.0094363711       -5.0556173153
 H        -7.9877542355        3.8898836650       -3.9560501206
 H       -12.8402582057        6.6926184551        1.0280863519
 H       -13.8794127735        5.4882922813        1.6695339612
 H       -14.3599029069        7.1259454692        1.6597221627
 H       -16.2831646453        5.9461095424       -1.4685238621
 H       -16.3459074528        7.0569866360       -0.1688804167
 H       -16.3019691928        5.3856123234        0.1974352758
 Na      -10.6738102968        6.6383049575       -0.1497164670
