117

 C       -15.0587165766        7.9040090849       -1.8178305635
 C       -13.8801849590        7.2776846210       -1.1031489614
 O       -12.7193819215        7.5981289938       -1.3741300262
 C       -14.0258715957        6.0891537285       -0.1264795970
 C       -13.2166914236        4.8815497363       -0.8369042036
 O       -13.3327658550        4.7105584697       -2.0246293139
 C       -12.3668061119        3.8263856293       -0.0179730311
 C       -11.7269451383        2.8766495134       -1.0361971865
 C       -10.5735190229        3.5154631318       -1.7968923564
 O       -10.4104301692        4.7647370664       -1.8082297800
 C        -9.6436247611        2.6850437823       -2.6143388104
 C        -8.4476283739        2.0883866690       -1.7433517964
 O        -8.4328607741        2.3619937371       -0.5580393404
 C        -7.3338370227        1.3037317886       -2.4676571428
 C        -7.2730395286       -0.0633839210       -1.8293819633
 C        -8.0098871355       -1.2360672958       -2.6022527892
 O        -8.1688169531       -1.1282976918       -3.7725248798
 C        -8.5653114981       -2.3450095141       -1.6597436143
 C        -9.8843956029       -1.7651703216       -0.9232646923
 O       -10.0788834878       -0.5528165547       -0.9442243710
 C       -10.8161993014       -2.7665142782       -0.2256151202
 C       -11.5954623443       -2.1138410147        0.9354858567
 C       -10.6437714920       -1.5073685103        2.0359942844
 O        -9.4668777918       -1.8008671842        1.9793115285
 C       -11.3806735415       -0.5744623260        3.1502723789
 C       -11.0464689298        0.9011846103        2.8340177452
 O       -11.8087648447        1.4471206086        2.0508110636
 C        -9.7495062233        1.5877986333        3.3048432290
 C        -9.3587965281        2.7222503732        2.3270586195
 C        -8.1521231732        3.6263501289        2.8098256045
 O        -6.9972081309        3.2627088438        2.8474806334
 C        -8.5549005079        5.2341439316        3.0368208973
 C        -8.7915668610        5.7269500388        1.6237418291
 O        -9.9096431536        6.1069141860        1.3061632733
 C        -7.6007049704        5.7724352119        0.6766310206
 C        -7.2196355628        7.1745148995        0.1892796407
 C        -8.0110052558        7.7003833610       -1.0826806118
 O        -8.3175778785        6.8915789666       -1.9403138299
 C        -8.4778875414        9.1663006226       -1.0571869378
 C        -9.2676152248        9.4376432915        0.2530188298
 O       -10.2803008930        8.7940470245        0.4964070955
 C        -8.7888740007       10.5458252288        1.1954802253
 C        -7.1802998784        9.9015462950       -1.3129313295
 C        -9.4442311277        9.6144485787       -2.1769114287
 C        -9.7994237428        5.3258578580        3.8724877544
 C        -7.3489650201        6.0407198574        3.6335500932
 C       -12.8939888976       -0.8140124622        3.0766590602
 C       -10.8694252101       -1.0598425424        4.5972594658
 C        -8.7205360067       -3.6595765408       -2.4107639342
 C        -7.5334092899       -2.6316398244       -0.5148870093
 C       -10.3528179233        1.4339973009       -3.1791808065
 C        -9.0809033320        3.5467382581       -3.7746877756
 C       -13.5470132978        6.3750184480        1.2689445006
 C       -15.5382534132        5.5941781024       -0.1141256920
 H       -14.6846972894        8.3611003584       -2.6949833805
 H       -15.6368164002        8.6789773469       -1.2056418422
 H       -15.7970157789        7.0897716723       -2.1271476841
 H       -12.9918333759        3.2564901951        0.6621630263
 H       -11.5266106985        4.3895541233        0.4848010950
 H       -12.4171419604        2.4699920934       -1.8025156466
 H       -11.3057608817        1.9915482000       -0.5801617126
 H        -6.4445829929        1.8981787687       -2.2953264809
 H        -7.4064109764        1.3152561149       -3.4889662504
 H        -7.5718445169        0.0321731227       -0.7837327115
 H        -6.1779861044       -0.2824519755       -1.8689675780
 H       -10.2563768344       -3.6416758478        0.1680798311
 H       -11.6856168689       -3.0256661849       -0.8332769678
 H       -12.2404234524       -2.7273089750        1.4947802350
 H       -12.2167643117       -1.3078166192        0.4226160796
 H        -8.9594540554        0.7681975761        3.3787685333
 H        -9.9391856922        1.9492857937        4.3426799930
 H       -10.1677638419        3.3397220664        2.1004765226
 H        -9.1676715804        2.2916571316        1.3287684135
 H        -7.8729494948        5.1317200503       -0.2591975418
 H        -6.7281384086        5.2962338390        1.1086457031
 H        -6.1786844460        7.1345935280       -0.2110723867
 H        -7.2197203610        7.9469767954        0.9490210480
 H        -9.2429024549       11.5412757962        1.0552742442
 H        -7.7152286754       10.7331901363        1.1614823126
 H        -9.1304393139       10.3439242074        2.1917610367
 H        -6.7569041173        9.5008045494       -2.2359611924
 H        -6.4091338332        9.7854475336       -0.5675167333
 H        -7.2908879477       10.9747467961       -1.4206817875
 H        -8.8958962218       10.1143436947       -2.9894421875
 H        -9.9966002592       10.4322760953       -1.6255066895
 H       -10.0901168841        8.7894857087       -2.4393021742
 H       -10.6185811007        4.6229803470        3.4493976848
 H       -10.1749280157        6.3112744115        3.6907280142
 H        -9.5552348477        5.2001095872        4.9529073211
 H        -7.5999942962        7.1314334000        3.6134749739
 H        -6.4456806055        5.8731724233        3.1509231419
 H        -7.2181456527        5.6860791673        4.6276391925
 H       -13.2819087023       -0.3251167327        2.1606494724
 H       -13.2729179691       -0.2815498286        3.9453485098
 H       -13.1420221701       -1.8476965565        3.1689031838
 H        -9.7936230147       -0.8040206618        4.6973926456
 H       -11.1935885486       -2.1068977965        4.7762898053
 H       -11.3887537804       -0.4534227184        5.3734163018
 H        -7.7411658508       -3.9352065279       -2.6483502434
 H        -9.2919075881       -3.6071509656       -3.3177071042
 H        -9.1853262701       -4.4996240589       -1.8067782333
 H        -7.4944887932       -1.8238297780        0.2178067501
 H        -6.5882708046       -2.8920857609       -0.9465913082
 H        -7.7853603190       -3.3728746098        0.1400680793
 H       -10.9843405888        1.7363226391       -4.0076260543
 H       -10.9240510766        0.9044012576       -2.3670077019
 H        -9.6141728683        0.7861989989       -3.6549696399
 H        -9.8243196151        4.3400435161       -3.9550581433
 H        -8.7541565457        3.0459092775       -4.6681282222
 H        -8.2676011451        4.1573504905       -3.3461648908
 H       -12.5384596534        6.8911007152        1.2544450305
 H       -13.4528792626        5.5154411348        1.8261634551
 H       -14.1630061759        7.1043395285        1.7479485185
 H       -15.6829147644        5.2889212852       -1.1445128858
 H       -16.2578859337        6.3670477481        0.2322086165
 H       -15.6898791186        4.7665558765        0.5567497276
 Na      -10.7413314016        6.6262834883       -0.8663236067
