117

 C       -15.5387247584        7.6820715254       -1.4580385811
 C       -14.1510624219        7.1498093848       -1.1131434884
 O       -13.1005183863        7.6308088041       -1.5318737309
 C       -14.0998319439        5.8509012785       -0.2226346427
 C       -13.2119604370        4.6983961769       -0.9883379262
 O       -13.1349614232        4.7130346119       -2.2110470927
 C       -12.4714315835        3.6198070495       -0.2147046599
 C       -11.6738016592        2.7334079066       -1.0781959397
 C       -10.4524939044        3.5053615976       -1.6602525601
 O       -10.1647065155        4.6290991296       -1.4286183576
 C        -9.5391820855        2.6640911100       -2.7341091439
 C        -8.2308780554        2.2430927900       -2.0013660775
 O        -7.9072535579        2.7253413537       -0.9154100696
 C        -7.1181577780        1.3100136937       -2.7363416899
 C        -6.9110056764        0.0357997450       -1.7989851972
 C        -8.0592071290       -0.9603116280       -2.1319428247
 O        -8.5972816871       -0.9639541048       -3.2325694450
 C        -8.4242743775       -2.2234914131       -1.2034481111
 C        -9.6973066474       -1.6947625119       -0.4823594834
 O       -10.1808571161       -0.6116439399       -0.6831518474
 C       -10.5794679006       -2.7302195119        0.2482090274
 C       -11.4423429679       -2.1035326158        1.3321652823
 C       -10.6068437191       -1.4688181584        2.4360314405
 O        -9.4084231368       -1.6100276631        2.4785640854
 C       -11.3183862701       -0.5170023173        3.4006646156
 C       -11.1555565719        0.9136368133        2.6438190954
 O       -12.0017416616        1.2781569701        1.8696674816
 C        -9.8557144793        1.6560815217        2.9165893040
 C        -9.6547562915        2.9671796921        2.1672702283
 C        -8.3414176832        3.5994886591        2.7532577978
 O        -7.5773736537        2.9286370050        3.3592180597
 C        -8.3091349617        5.2046129682        2.7030437406
 C        -8.5523542848        5.6474402938        1.2989757733
 O        -9.6432610861        6.1745984754        1.0619856274
 C        -7.4991832900        5.6928677367        0.2421125157
 C        -7.1144049546        7.0171950266       -0.4104302763
 C        -8.2942647964        7.5818674080       -1.2887847039
 O        -8.9749666491        6.8701908691       -2.0147735369
 C        -8.5453602855        9.1558438042       -1.2547146003
 C        -9.3648063348        9.4082376594        0.0785922542
 O       -10.4718313514        8.9397596865        0.1034546517
 C        -8.7372435642       10.2176107122        1.2344809625
 C        -7.1506945872        9.8255073396       -1.2291128280
 C        -9.5507016454        9.5829416272       -2.4454954965
 C        -9.4181803658        5.7202197690        3.7412830077
 C        -6.9823034422        5.7350874221        3.2472389689
 C       -12.9026242663       -0.7320794161        3.5706604940
 C       -10.5784537955       -0.4891937170        4.7151227080
 C        -8.9445805487       -3.5068382976       -1.9459557014
 C        -7.2585977924       -2.6321331558       -0.4241400506
 C       -10.3116875951        1.5123805160       -3.3700002323
 C        -9.2616080972        3.6621471450       -3.9050544216
 C       -13.2020674442        6.2309983505        1.0930608891
 C       -15.3950866915        5.2632554282        0.1790488987
 H       -15.5785672001        8.8312380464       -1.4234555201
 H       -16.2822380490        7.3947154654       -0.6839217826
 H       -15.9151480381        7.1902384167       -2.3495131821
 H       -13.2634334920        3.0006150959        0.3261008520
 H       -11.8844311181        4.1531231163        0.5221370462
 H       -12.2101770445        2.3797780986       -1.9564971499
 H       -11.3420072937        1.8429769428       -0.4991384207
 H        -6.3331049728        1.9488069245       -2.9814433014
 H        -7.5035032464        0.9787334533       -3.6971844775
 H        -6.7929373900        0.2646820147       -0.7476592446
 H        -6.0113390903       -0.5746478417       -2.0967522462
 H        -9.9641919654       -3.4188877935        0.8386695634
 H       -11.3442935990       -3.1630252913       -0.4000554393
 H       -12.2040069585       -2.7792540990        1.7114099241
 H       -11.9215212835       -1.1693729206        0.9289143416
 H        -9.0717198820        0.9368855228        2.7180734760
 H        -9.8684639096        1.9537190893        4.0332994277
 H       -10.5366914520        3.6314103713        2.2474602807
 H        -9.4693193954        2.8070299356        1.1272543750
 H        -7.7986783358        4.9429530023       -0.5213836881
 H        -6.5184449733        5.1492914116        0.5165796582
 H        -6.2237119557        6.9254478180       -1.0321172774
 H        -6.9738933021        7.7713984810        0.3846287643
 H        -8.1481189087       11.0403037506        0.9071993336
 H        -8.0794755353        9.5552044069        1.7642624144
 H        -9.3756760960       10.5815538715        2.0519884493
 H        -6.5055797394        9.4232238820       -2.0117842291
 H        -6.6096620322        9.5339991001       -0.3578753159
 H        -7.0854724584       10.9166132326       -1.3496696966
 H        -9.4003445244        8.7458745112       -3.1883027822
 H        -9.2164295747       10.5184149506       -2.8628602413
 H       -10.6103441801        9.6854432191       -2.0565061529
 H       -10.4207441934        5.7018332789        3.3370838436
 H        -9.1211197546        6.7607421911        4.1606377353
 H        -9.3934970657        5.0813088308        4.6586502488
 H        -6.8113700383        6.7509629228        3.3453747127
 H        -6.1854025447        5.2850024831        2.5806083793
 H        -6.8605984039        5.2790944375        4.2180697151
 H       -13.3821818304       -0.4486127136        2.6425175280
 H       -13.2739020519       -0.1654748428        4.4086441728
 H       -13.1162405093       -1.8194758759        3.8477435543
 H        -9.5197208038       -0.4674070328        4.4375084790
 H       -10.7922185210       -1.4444341440        5.2447247544
 H       -10.9230369678        0.3251853109        5.4322034184
 H        -8.0856809439       -4.0202899684       -2.4245640504
 H        -9.6131240602       -3.2195583928       -2.7160127790
 H        -9.2832891882       -4.2522344240       -1.3194172308
 H        -6.8913475584       -1.8756117538        0.2364165137
 H        -6.4398669969       -2.9649169302       -1.0726086633
 H        -7.4998213359       -3.5141269587        0.2163500106
 H       -11.1921130781        1.9120316208       -3.9429996594
 H       -10.6508775989        0.8044025751       -2.6604573376
 H        -9.6170876419        0.9854520996       -4.0417999235
 H        -8.3555851991        4.3176566642       -3.8893554071
 H       -10.1531217078        4.2763581649       -4.1440732708
 H        -9.1828718342        3.0132326670       -4.7808592371
 H       -12.2143517462        6.4085249771        0.8768655816
 H       -13.3532739410        5.4451709699        1.8510150452
 H       -13.6363184908        7.0885984175        1.5772218634
 H       -16.0201770259        5.0506210918       -0.6566154303
 H       -15.8257029275        5.9567659889        0.8365181120
 H       -15.1272731577        4.2632075467        0.5500285522
 Na      -11.0736359499        6.7401046314       -1.0042987870
