117

 C       -15.5287884914        7.0666543651       -0.0482932626
 C       -14.2081274671        6.2029208399       -0.0051839826
 O       -13.1060779727        6.6921188879       -0.0943928008
 C       -14.4091163505        4.6532546512        0.3535414253
 C       -13.8396855642        3.7798569732       -0.9751184743
 O       -14.5760174387        3.7009266116       -1.9042939809
 C       -12.5044350989        3.1656407298       -0.8509538405
 C       -11.9386713677        2.5560292324       -2.1468019054
 C       -10.6477992442        3.1817821082       -2.6408907212
 O       -10.3849732934        4.3186225361       -2.3677501295
 C        -9.5673241003        2.3984064373       -3.4712452304
 C        -8.7106169965        1.6601589282       -2.3661656645
 O        -8.8735151297        2.0899684739       -1.2286456517
 C        -7.6678004646        0.5804665303       -2.6335499525
 C        -7.2629760756       -0.3313982121       -1.5209006567
 C        -8.2318060399       -1.4387539602       -1.1830934126
 O        -9.2266181937       -1.7847173705       -1.8305484088
 C        -8.0596010749       -2.2126984152        0.2046991455
 C        -8.9995543912       -1.4252144700        1.2315415879
 O        -8.6761480200       -0.3610235492        1.6383933724
 C       -10.3806707772       -2.0000336352        1.5451571294
 C       -11.3093774393       -0.9776357500        2.2320953172
 C       -10.7471855940       -0.5705890936        3.6004830979
 O       -10.1935495625       -1.3378959831        4.3553660910
 C       -11.0160063374        0.9606669850        4.1194941791
 C       -10.5997946573        1.8483310913        2.9366223700
 O       -11.3352686284        2.2389407502        2.0294716484
 C        -9.0800944275        2.3655126767        3.0526304549
 C        -8.7074234110        2.8926373311        1.6706785957
 C        -7.4292024611        3.6934603454        1.6528861060
 O        -6.3122896226        3.2506641313        1.6726142726
 C        -7.5880013397        5.2924526878        1.6864645853
 C        -8.2736523557        5.6786463136        0.3767081971
 O        -9.4815894945        5.7278724322        0.3935974872
 C        -7.4720812391        5.9663154660       -0.8946543993
 C        -7.4178028491        7.4288253075       -1.3328332287
 C        -8.5198117790        8.0521877054       -2.2149213678
 O        -9.0652593122        7.3472493803       -3.0230380771
 C        -9.0359190759        9.4535590762       -1.9278796549
 C       -10.4761427116        9.4979666631       -1.2675792952
 O       -11.2219378989        8.5297648848       -1.3509591595
 C       -11.0280854413       10.8167114114       -0.7071199378
 C        -8.0892503291       10.3408594795       -1.0497438386
 C        -9.2122281136       10.0898254026       -3.3227558393
 C        -8.3830647098        5.7506543160        2.9486475049
 C        -6.1361179864        5.8881326391        1.7665204954
 C       -12.5306403205        1.0740178993        4.3009541043
 C       -10.3134267879        1.2221054605        5.4381646153
 C        -8.3546003628       -3.7579449863       -0.0156173258
 C        -6.6899941195       -2.0854683712        0.9027846508
 C       -10.0918310787        1.4287437210       -4.5573897604
 C        -8.5213273741        3.3420129540       -4.2584026348
 C       -13.6821304591        4.2683602245        1.6242696978
 C       -15.8811090735        4.2443984446        0.4924800489
 H       -15.3224804681        8.1478492825       -0.1432098908
 H       -15.9357432213        7.0814196858        0.9601130512
 H       -16.2895025774        6.5953543977       -0.7698055828
 H       -12.5185043443        2.4430326947       -0.0692314654
 H       -11.7472546647        3.8839405758       -0.5521955035
 H       -12.7099290935        2.6438803044       -2.9585395316
 H       -11.8775154563        1.4661659828       -2.0977808464
 H        -6.7432179013        1.1702710878       -2.8856630597
 H        -7.7865884186        0.1330642284       -3.5916945111
 H        -7.1970348247        0.3275395117       -0.6319967687
 H        -6.3273700288       -0.7999738174       -1.7655857296
 H       -10.3478558304       -2.8035156131        2.2390738278
 H       -10.8195872769       -2.2777498131        0.5812448692
 H       -12.2446851717       -1.5293494814        2.4837287204
 H       -11.6122157569       -0.0767974994        1.6486363606
 H        -8.5161904088        1.4327110006        3.3911752396
 H        -9.0368855114        3.1343264006        3.7683810647
 H        -9.5194429617        3.5545999939        1.3578522272
 H        -8.6427940176        2.1154559899        0.8653308123
 H        -7.8832218001        5.3991726429       -1.7707548674
 H        -6.5026360027        5.5160506813       -0.9260374414
 H        -6.4614881504        7.3674124702       -1.9132139505
 H        -7.2194957783        8.0997331842       -0.4776962310
 H       -10.5130019161       11.1003807509        0.1515546526
 H       -12.0451005130       10.6323612273       -0.5435194107
 H       -10.9766200260       11.6056490471       -1.4674259660
 H        -7.1181485877       10.4419419901       -1.5702085759
 H        -8.0311874305       10.0075336106       -0.0422148317
 H        -8.5450198247       11.3532972065       -1.0320046046
 H        -9.8074069808       10.9925736201       -3.2151709306
 H        -9.8272378007        9.4865836069       -3.9210371899
 H        -8.2934337281       10.3058364567       -3.8786247203
 H        -9.4604273389        5.6518322117        2.9548709312
 H        -8.1527499979        6.8835533564        3.0970016772
 H        -8.0292000646        5.2872196299        3.8699391071
 H        -6.1212433150        6.9099950669        1.4347629168
 H        -5.4772954058        5.2560648187        1.0870822693
 H        -5.6981130744        5.8410250387        2.7979399024
 H       -13.0884388388        0.8672019054        3.4104252255
 H       -12.8099625749        2.0090578860        4.6710455625
 H       -12.9097130160        0.3738249956        5.0901106143
 H        -9.3184867672        1.5396131340        5.3043155675
 H       -10.3925793023        0.3702460051        6.0501996420
 H       -10.8177112802        2.0488189440        5.9582654690
 H        -7.4514141763       -4.3662328450        0.2014938420
 H        -8.7196500138       -3.8825748376       -1.0137912000
 H        -9.1528297665       -4.0934350977        0.5247589489
 H        -6.8734579143       -2.2552182767        1.9619303904
 H        -6.1601776945       -1.0815979704        0.8637526388
 H        -5.9859305719       -2.8974813700        0.5883500713
 H       -10.6770624099        2.0755533155       -5.2181908574
 H       -10.6410263392        0.6318102080       -4.1623458545
 H        -9.2932849012        1.1106466684       -5.2311592576
 H        -7.7936197972        2.6807728914       -4.7304625430
 H        -8.0153027298        4.0336793112       -3.5967373910
 H        -9.0991888633        3.8808716622       -4.9541987925
 H       -12.6071068048        4.2780672749        1.5911100453
 H       -13.9316915214        3.2643631396        1.9004922459
 H       -14.0582035181        4.9779810961        2.2954660753
 H       -16.4454307931        4.4314268890       -0.4174108640
 H       -16.3450443506        4.8267703080        1.2518413377
 H       -16.0196701248        3.2358006800        0.9205001354
 Na      -11.0201453940        6.2652996865       -1.2688684620
