117

 C       -15.2021985620        6.8436581687       -0.1985533395
 C       -13.9543878967        5.9408044501        0.0183008743
 O       -12.8606641829        6.3375528510       -0.2772853276
 C       -14.2878652440        4.4367934298        0.4644463934
 C       -13.7690808298        3.6185472968       -0.7719523186
 O       -14.5282805532        3.2198576644       -1.6493584550
 C       -12.3082901476        3.2595831440       -0.7207672415
 C       -11.7885996871        2.5854626547       -2.0295416064
 C       -10.6312301488        3.2913380092       -2.7353757064
 O       -10.4997261809        4.4918237734       -2.7780776365
 C        -9.6252367363        2.3618107929       -3.5139934027
 C        -8.7870765516        1.6518589275       -2.3564432296
 O        -8.6955905859        2.1273071330       -1.2066035921
 C        -8.0484643304        0.3401286224       -2.6744080228
 C        -7.5102555910       -0.3745035499       -1.4170741530
 C        -8.4357662497       -1.4289105604       -0.8174599174
 O        -9.5072155974       -1.7979767626       -1.2667184267
 C        -7.9306164912       -2.1376210137        0.4829262617
 C        -8.9845244422       -1.4161095273        1.5269161627
 O        -8.6401583475       -0.4456300369        2.1097063814
 C       -10.4356195849       -1.9530245591        1.5966800788
 C       -11.3811026741       -0.9280076336        2.2786065080
 C       -10.8391954827       -0.5849783489        3.6936632164
 O       -10.4103119029       -1.4878119285        4.3740441297
 C       -10.8776494140        0.9352936902        4.1827749437
 C       -10.4446590740        1.9755443680        3.0646566323
 O       -11.2500239781        2.2923895644        2.2126229435
 C        -9.0092437025        2.5914599026        3.1033320106
 C        -8.7140650449        2.9800799818        1.6309499009
 C        -7.4610881740        3.8505701741        1.4478568250
 O        -6.3780402633        3.3148892437        1.2625554052
 C        -7.5994323175        5.4387445619        1.5210202515
 C        -8.1792122184        5.8217061797        0.1474377284
 O        -9.3737917829        5.8305126764       -0.0931938213
 C        -7.2249153652        6.2540243059       -1.0051510571
 C        -7.3885001547        7.7407742212       -1.2636659684
 C        -8.7041536462        8.1263765611       -2.0101390415
 O        -9.2787840092        7.2267520983       -2.5926047173
 C        -9.1800516761        9.5566023324       -2.0940044307
 C       -10.7677394655        9.5612379022       -1.7100570934
 O       -11.4263044057        8.5789383579       -1.9501003912
 C       -11.2835059048       10.7087094307       -0.8939364942
 C        -8.3447418296       10.5051252728       -1.1835360362
 C        -9.1065957037        9.9800229366       -3.6388970474
 C        -8.5070455578        5.8319223001        2.6661901906
 C        -6.1351188918        6.0450800459        1.6955479546
 C       -12.3451285948        1.2345843590        4.6072940348
 C        -9.9331327457        1.0661421789        5.4359298938
 C        -8.2427372746       -3.6752510107        0.3097469531
 C        -6.5024049096       -1.9231435997        0.9989120220
 C       -10.4483428926        1.4831961727       -4.5387410027
 C        -8.5722255543        3.1711511300       -4.2730797639
 C       -13.5669067930        4.1110185681        1.8105007927
 C       -15.8109641206        4.2329799786        0.6835399851
 H       -14.8168060142        7.9341261530       -0.3066436955
 H       -15.8010181722        6.9107402504        0.6705429815
 H       -15.7928957372        6.4972874241       -1.0624764943
 H       -12.1902136938        2.5328874505        0.0838097101
 H       -11.6748358238        4.1053061955       -0.3731060925
 H       -12.6672882745        2.6276785257       -2.6960243662
 H       -11.7473434226        1.5292789375       -1.8687398708
 H        -7.1832332076        0.6756348656       -3.2603519872
 H        -8.4185170414       -0.2861039147       -3.4132565410
 H        -7.3416064464        0.4222544908       -0.6191664308
 H        -6.5443190113       -0.8153840496       -1.6960433903
 H       -10.4072952884       -2.8098375957        2.2495502566
 H       -10.8306413619       -2.1502284806        0.5839574716
 H       -12.3761022312       -1.3981983924        2.3681153876
 H       -11.6924024456       -0.0399685653        1.6276142101
 H        -8.3708349757        1.7051627871        3.4089086798
 H        -8.9855021833        3.3262291909        3.8958064732
 H        -9.4903618061        3.6407926287        1.2778804242
 H        -8.6313004412        2.0251963663        1.0721892977
 H        -7.4166897196        5.5813758065       -1.8714050581
 H        -6.1754819672        5.9556516676       -0.8879316439
 H        -6.5753947003        8.0829737866       -1.9354377461
 H        -7.2705128741        8.1951496451       -0.2666092545
 H       -11.3854890308       10.2995673971        0.1136945844
 H       -12.2186584614       10.9855444770       -1.3758651843
 H       -10.7201577416       11.6515088454       -0.9661693440
 H        -7.2827659213       10.4353392755       -1.4841162110
 H        -8.3881430261       10.1457475239       -0.1867321845
 H        -8.6382317165       11.5582706781       -1.3405038877
 H        -8.6319097602       10.9478736672       -3.6371916655
 H       -10.0836170844       10.1760035394       -4.0076602225
 H        -8.5784633175        9.3255494794       -4.3279807898
 H        -9.4428679678        5.2778124637        2.6102035626
 H        -8.7621526334        6.8829868867        2.6256668069
 H        -8.0305944599        5.7507087867        3.5733520204
 H        -6.1663120060        7.0981252521        1.6934729955
 H        -5.5244845788        5.7003610878        0.8752748789
 H        -5.6438718400        5.7228663025        2.6561438124
 H       -12.8608172464        1.2629317221        3.6737161727
 H       -12.5791976038        2.1470736285        5.0893030772
 H       -12.7857696255        0.4388431936        5.2331643312
 H        -9.0439186044        0.4001051548        5.3690009899
 H       -10.5690448106        0.8993619975        6.3010969389
 H        -9.5041920412        2.0699784535        5.6125484686
 H        -7.7867131755       -4.2843489639        1.0991651037
 H        -7.8526835401       -3.9633693729       -0.6946115100
 H        -9.2836186649       -3.8984002531        0.2085991165
 H        -6.0245347094       -2.6947669140        1.5908761177
 H        -6.4611268994       -1.0574441720        1.6754117081
 H        -5.7646763515       -1.9272136374        0.1482000805
 H       -10.4745521486        2.0130610187       -5.5309794956
 H       -11.4887755954        1.3144893752       -4.2169991233
 H        -9.9327756835        0.4950857874       -4.5402842253
 H        -8.2039973174        2.5100824668       -5.0097895150
 H        -7.7342936621        3.3193849047       -3.5790412823
 H        -8.9541971931        4.1101624037       -4.6407162247
 H       -12.4862461466        4.4839376520        1.8054247389
 H       -13.3861478070        3.0237197715        1.8801025838
 H       -14.1115849401        4.5028664288        2.6573886037
 H       -16.3983698486        4.2164908404       -0.2689307279
 H       -16.2987700601        4.9204963323        1.3485561029
 H       -16.0384767349        3.1654903126        1.0088206149
 Na      -10.9773973728        6.1744168911       -1.5857921139
