117

 C       -15.7237936749        5.5648725672       -1.2985691034
 C       -14.2751036770        5.6977007088       -0.8580529946
 O       -13.4908213083        6.1568727889       -1.6716830241
 C       -13.7434911592        4.9444438756        0.5458490068
 C       -13.2724159180        3.4669329849       -0.0422725755
 O       -14.0918937477        2.6649628556       -0.3460013636
 C       -11.8028760126        3.2221726050       -0.2194450288
 C       -11.5145363323        2.2474123908       -1.3878758971
 C       -10.6017821716        2.7086569076       -2.4850565428
 O       -10.4138786416        3.8935118071       -2.6991688603
 C        -9.9439595060        1.6575737665       -3.4665619210
 C        -8.8806058325        0.8023455964       -2.6156718385
 O        -8.4226541143        1.2951910991       -1.6548850175
 C        -8.5936487193       -0.6368525633       -3.0547241885
 C        -7.8056698925       -1.3574133899       -1.9485950403
 C        -8.7075758791       -1.3318002449       -0.7034349623
 O        -9.8556706526       -0.9638168523       -0.7387133076
 C        -8.2165228208       -1.9607788415        0.6701505327
 C        -8.8962266103       -1.3157678404        1.9322420999
 O        -8.3243024821       -0.3717278217        2.4958081576
 C       -10.2271035971       -1.8991052948        2.4179602203
 C       -11.0190793804       -0.8220335699        3.2132171527
 C       -10.1139666124       -0.3291283543        4.3402077586
 O        -9.5332603950       -1.1045271819        5.0658512872
 C       -10.1221852976        1.2025089661        4.7204998566
 C        -9.8159003090        2.1172873246        3.5156623366
 O       -10.6385981959        2.1486190740        2.6145631238
 C        -8.4298790235        2.8373583484        3.2782457837
 C        -8.5281716480        3.6165803494        2.0090050820
 C        -7.3923683389        4.6266285906        1.7279676264
 O        -6.3017685673        4.2337866931        1.3607716454
 C        -7.7116617423        6.1516710045        1.7173042539
 C        -8.4020761114        6.3736144543        0.3495290741
 O        -9.6106583028        6.2249986360        0.1515696183
 C        -7.5286322827        6.7975057039       -0.8193094095
 C        -7.8973712799        8.1731854391       -1.4369282893
 C        -8.9869803540        7.9354812999       -2.5107011509
 O        -9.2788461484        6.8057343797       -2.8620219131
 C        -9.8347615371        9.1728200083       -3.1603603348
 C       -11.2971858276        9.2261031563       -2.5512113428
 O       -11.9264575107        8.2406759649       -2.3230614575
 C       -11.9423535656       10.5546493783       -2.5601047736
 C        -8.9440267292       10.4422443001       -2.9129410962
 C        -9.9503650694        8.9175609590       -4.7069890483
 C        -8.7320600137        6.6350253477        2.8612826697
 C        -6.3526111050        6.9355905910        1.9046484213
 C       -11.6514517995        1.4804849012        5.0422092754
 C        -9.1637094355        1.4915320382        5.9088707027
 C        -8.3789144937       -3.5555272627        0.7804530523
 C        -6.7079825198       -1.5824894031        0.8466883331
 C       -11.1131393905        0.7986675311       -4.0116059840
 C        -9.0908400646        2.4317484566       -4.4911714593
 C       -12.6576673287        5.8157953693        1.1323401508
 C       -14.9335566201        4.7204206110        1.5231495035
 H       -15.8804117694        6.1808097904       -2.1481622659
 H       -16.4604758799        5.9555157434       -0.5927141156
 H       -15.8888761640        4.5419799326       -1.5086717527
 H       -11.3726735580        2.7823756714        0.7216138796
 H       -11.2544174555        4.1925974965       -0.3531324629
 H       -12.4908137938        1.9876104543       -1.8289162451
 H       -11.2512673593        1.2566333877       -1.0939969112
 H        -7.9478130834       -0.6675458418       -3.8977469199
 H        -9.4897520778       -1.1639500245       -3.2105345859
 H        -6.8433881986       -0.7956269569       -1.8728300189
 H        -7.5773601452       -2.4065389696       -2.2409697809
 H        -9.9019012037       -2.7280918044        3.0625237374
 H       -10.7291334272       -2.5552212556        1.6640553607
 H       -11.8473429495       -1.3549179145        3.6944075243
 H       -11.5451853844       -0.0302958808        2.5772651189
 H        -7.6841292867        2.0333967713        3.2993275679
 H        -8.1911655476        3.5380647011        4.1057517946
 H        -9.5614646832        4.0782099685        1.9793547336
 H        -8.3968822102        2.9540549437        1.1566070652
 H        -7.5758370537        6.1213805037       -1.6612044665
 H        -6.4194409989        6.8223399438       -0.5625345693
 H        -7.0030653019        8.5816960535       -1.8986854372
 H        -8.3500318333        8.8629128862       -0.7255157629
 H       -13.0248127157       10.3399653176       -2.6790090267
 H       -11.4684355116       11.1354860966       -3.3750220524
 H       -11.8745909571       11.0737683401       -1.5706374519
 H        -7.9155656396       10.1092553700       -3.0298028730
 H        -8.9319549444       10.9221467974       -1.9316423600
 H        -9.0767146468       11.2652614029       -3.6071772620
 H       -11.0126290835        8.8731671819       -4.9306826214
 H        -9.4126359264        7.9477269684       -4.9589732844
 H        -9.5626819970        9.7240982886       -5.3216367029
 H        -9.7029719645        6.7071693861        2.4177893876
 H        -8.4508998968        7.5713613864        3.2137443558
 H        -8.6366209675        5.8329518179        3.6460770647
 H        -6.2646426143        8.0129880957        1.5943261554
 H        -5.5595482072        6.4269846765        1.4104402785
 H        -6.1588417425        6.8739097210        2.9641577814
 H       -12.2093954153        1.1572652960        4.1593218650
 H       -11.7678045681        2.5890603601        5.1601018090
 H       -11.9470678773        0.9155741515        5.8844795045
 H        -8.1169947305        1.4951946635        5.5654317830
 H        -9.1536067904        0.7013724908        6.6665781486
 H        -9.3926343553        2.4032673999        6.3722766570
 H        -8.5020649268       -3.7771167888        1.8214219585
 H        -7.4269786909       -4.0018904635        0.4258835151
 H        -9.2902322287       -3.9393683791        0.1979001734
 H        -6.2111351882       -2.2176782392        1.5824465663
 H        -6.6373565753       -0.5916327523        1.2135300107
 H        -6.1874350216       -1.8488222843       -0.0234503555
 H       -11.8578104046        1.4497593362       -4.3486760595
 H       -11.5674227191        0.2176657809       -3.1927850518
 H       -10.8259582836        0.1139078786       -4.7595051063
 H        -8.9384769741        1.9380435584       -5.4189926184
 H        -8.0935520199        2.5418225247       -4.0506382472
 H        -9.3518870365        3.4787368832       -4.7378683574
 H       -11.9232104970        6.1192490481        0.4124918041
 H       -12.0453792004        5.3788365780        1.9672836529
 H       -13.0492643000        6.8084286542        1.4669160602
 H       -15.6404946074        3.9704631699        1.1891014857
 H       -15.4684296161        5.6544919755        1.7074364245
 H       -14.6017448897        4.3354894123        2.4718734206
 Na      -11.1826598909        5.9485436276       -2.0318131285
