117

 C       -15.7302743321        5.6761323726       -1.2170769376
 C       -14.2139890756        5.6151883336       -0.8459916078
 O       -13.4385880813        6.1611714109       -1.5630859329
 C       -13.7613172824        4.9997114734        0.4532482024
 C       -13.3216074776        3.5165531709       -0.0289508792
 O       -14.2143183380        2.7625301246       -0.2858609757
 C       -11.8212610627        3.1539758038       -0.2840406283
 C       -11.6894162352        2.1799489008       -1.4685907545
 C       -10.5862220756        2.6567753656       -2.5016467241
 O       -10.3257627751        3.8532307709       -2.6453621801
 C        -9.8972944647        1.6062928696       -3.4182650199
 C        -8.9473442917        0.7218137773       -2.5725032907
 O        -8.3751883022        1.2186014458       -1.6292879099
 C        -8.5128474562       -0.6243578820       -3.0928391583
 C        -7.8722396702       -1.3483307655       -1.9016177561
 C        -8.7283892825       -1.3865862415       -0.6844662356
 O        -9.8471337602       -0.9044560244       -0.6634445969
 C        -8.0789255232       -1.9670883603        0.7266601276
 C        -8.8963554537       -1.2692879567        1.8814340961
 O        -8.4315061219       -0.2832483591        2.4952929866
 C       -10.2094129407       -1.8679571326        2.4270999230
 C       -11.0144976814       -0.8343937417        3.1596275960
 C       -10.2352159268       -0.3964148565        4.3710421485
 O        -9.6233601474       -1.1725598086        5.0593243448
 C       -10.1346830974        1.1821110522        4.7103676653
 C        -9.8309242138        1.8873828888        3.4151694372
 O       -10.7060258098        2.0727145185        2.5563528360
 C        -8.4889484994        2.7416058251        3.2516518289
 C        -8.6031447249        3.5816158303        1.9275634411
 C        -7.4092940567        4.5750841958        1.7308493605
 O        -6.2928398565        4.2158418825        1.3545763667
 C        -7.7032559088        6.1652311225        1.7803849685
 C        -8.4056643362        6.4314263415        0.3280259608
 O        -9.5871651531        6.2105110875        0.2168808645
 C        -7.5135425221        6.7822800431       -0.8868848779
 C        -7.8733970258        8.1961960055       -1.4270721523
 C        -8.9748506154        8.0819455087       -2.5237940112
 O        -9.2474261829        6.9683381013       -2.9293005956
 C        -9.6744828305        9.2760894315       -3.1483136018
 C       -11.2626369692        9.3152653841       -2.5738793288
 O       -11.7772146061        8.2600982686       -2.2701070064
 C       -11.9646228858       10.6419003982       -2.5571504813
 C        -8.9963708394       10.5969058185       -2.8231384754
 C        -9.9923387227        9.0015565801       -4.6277479471
 C        -8.6974015690        6.5968389990        2.9077254176
 C        -6.3885865463        6.8569282042        1.8798206659
 C       -11.6719959948        1.5475534515        5.1262073357
 C        -9.1936486195        1.3507467114        5.8797902075
 C        -8.3493260851       -3.4383826937        0.7321003476
 C        -6.5786221730       -1.5830945607        0.8723256813
 C       -10.9974562670        0.8259112559       -4.2824294847
 C        -9.0898673504        2.3353013288       -4.5634172635
 C       -12.6159624486        5.6702857396        1.2115808290
 C       -14.9517297587        4.7831473820        1.4078607805
 H       -15.8840417174        6.2910862455       -2.0174230165
 H       -16.3853986665        6.1004474228       -0.4308909778
 H       -16.0285921043        4.6904484889       -1.4004451721
 H       -11.4115794822        2.6704073870        0.6779858313
 H       -11.1637967093        4.0467785385       -0.4433633984
 H       -12.6456105587        2.0827403705       -1.9594506269
 H       -11.5734545796        1.1315990924       -1.1489954507
 H        -7.7978765182       -0.5791781227       -3.9642017102
 H        -9.4165431773       -1.1830910747       -3.3026362209
 H        -6.9617491348       -0.6990597546       -1.6835794171
 H        -7.5085434734       -2.3582552133       -2.1336207259
 H        -9.9982444910       -2.7992909924        2.9485946734
 H       -10.7741756503       -2.3349764012        1.5813950005
 H       -12.0134873035       -1.2853551450        3.3328528660
 H       -11.2384609690        0.0435745844        2.4507932300
 H        -7.7042180153        1.8731159190        3.2395185189
 H        -8.2844928862        3.3702237863        4.1226807448
 H        -9.5418952393        4.1333414468        1.9904526129
 H        -8.6516132391        2.9303773055        1.0093566092
 H        -7.6764137349        6.0347150847       -1.7254520973
 H        -6.4779114705        6.7542099208       -0.6593193899
 H        -7.0206164052        8.6962174542       -1.8328622087
 H        -8.2481935251        8.7792523356       -0.5967265626
 H       -13.0279238229       10.5015164317       -2.7481410583
 H       -11.4554059981       11.3436128578       -3.2036209386
 H       -11.9398186201       10.9372952689       -1.5532708772
 H        -7.9222307721       10.7043973074       -3.0522890049
 H        -9.0073087331       10.7959182886       -1.7751006071
 H        -9.5500765294       11.4519671390       -3.2668223565
 H       -11.0454441468        9.0939298907       -4.6189526041
 H        -9.6929881767        8.0020595853       -4.9434158684
 H        -9.6323044740        9.7364392801       -5.3382076772
 H        -9.7297966841        6.6314222016        2.4324160605
 H        -8.4617647209        7.5707805505        3.3070496333
 H        -8.5472584397        5.8114808852        3.6634216562
 H        -6.3365871951        7.8785352064        1.5257716602
 H        -5.6027390773        6.2635861656        1.3762711230
 H        -6.1113464248        6.9068819328        3.0015457639
 H       -12.2241763524        1.1456846541        4.2919522514
 H       -11.8521132381        2.5706469940        5.1815908833
 H       -11.9331407543        1.0031290076        6.0431435021
 H        -8.1551351148        1.5671596708        5.6401535297
 H        -9.1974563084        0.4100998503        6.3492762969
 H        -9.4975135955        2.0552859116        6.5940733205
 H        -8.4536273145       -3.8279115954        1.7195916411
 H        -7.6230510413       -4.0005801729        0.0959610195
 H        -9.3516073141       -3.4421155358        0.2285610943
 H        -6.1032041909       -2.2761580795        1.5161993447
 H        -6.4095550047       -0.6340100687        1.3017173022
 H        -6.0895857408       -1.9274828575       -0.0096465639
 H       -11.9049672237        1.3873054055       -4.3076906104
 H       -11.2815775652       -0.0995247050       -3.8311140057
 H       -10.6210880896        0.5481063775       -5.2218732002
 H        -8.8149739238        1.6152041786       -5.2865779669
 H        -8.1467040045        2.8432381267       -4.3119163646
 H        -9.6805095000        3.0686933713       -5.0805549051
 H       -11.6177877411        5.8347912428        0.7402321995
 H       -12.3609131908        5.0673588207        2.0625586987
 H       -12.9058902195        6.6162734092        1.5245371011
 H       -15.6453329492        3.9958203731        1.1412390834
 H       -15.4953801998        5.6615004553        1.5235386284
 H       -14.6196210774        4.4683892021        2.4040138332
 Na      -11.1439801445        5.9361086313       -1.9633279905
