117

 C       -15.5660586113        5.9192775010       -1.1241380248
 C       -14.1108563413        5.6990027217       -0.7315676268
 O       -13.2468517146        6.0792363535       -1.5551708792
 C       -13.8039527171        4.9317329135        0.5392694718
 C       -13.5178125527        3.3426027159       -0.1543388481
 O       -14.4220511175        2.6179924703       -0.3624184777
 C       -12.0456185689        2.9996611216       -0.4385516894
 C       -11.7765967157        2.1378261651       -1.6822142813
 C       -10.6558752490        2.6485233589       -2.5832860207
 O       -10.2463127555        3.7834379856       -2.5660324388
 C        -9.9250825146        1.5599457816       -3.6234220108
 C        -8.9120433060        0.8109589557       -2.6933481570
 O        -8.4897411290        1.3578210744       -1.7164803896
 C        -8.5473175220       -0.6714994833       -2.9728020420
 C        -7.8271836685       -1.3974619087       -1.8446058131
 C        -8.6541809236       -1.3373861928       -0.5254025899
 O        -9.7990073604       -0.9808291162       -0.5648269995
 C        -8.0257325008       -1.9106672873        0.7616906294
 C        -8.8436853296       -1.2209746473        1.8572927214
 O        -8.5088572586       -0.1702798245        2.3569199840
 C       -10.2472313828       -1.8657449828        2.1501700320
 C       -11.1448454856       -1.0064729223        3.0884758607
 C       -10.4119044028       -0.5125262667        4.3487143710
 O        -9.8932320461       -1.3234558667        5.0667065949
 C       -10.2283454901        1.1357749789        4.6722219923
 C        -9.9428284987        1.9455956477        3.3558125317
 O       -10.8192806829        1.9104824316        2.5150094404
 C        -8.6332989294        2.6768899130        3.0821580670
 C        -8.7173500799        3.5785774447        1.8881167522
 C        -7.4604556092        4.4324924319        1.7055237698
 O        -6.3764385076        3.9806517562        1.4767993764
 C        -7.7399592511        6.1271827764        1.6725987736
 C        -8.3630591447        6.3981416984        0.2738251559
 O        -9.6082773452        6.2156003227        0.2009504064
 C        -7.5175371590        6.8912771089       -0.8928188446
 C        -7.9205637936        8.2654894512       -1.4502296784
 C        -8.8777946114        8.2261431508       -2.6314239881
 O        -9.2650885396        7.1613872976       -3.1064559513
 C        -9.6117072364        9.5184162009       -3.0880937571
 C       -11.1526611172        9.3512502767       -2.4615735640
 O       -11.6193858557        8.3697650218       -1.9616746912
 C       -12.0733817850       10.6872884809       -2.4277492921
 C        -8.9326528548       10.8349755018       -2.7797861225
 C        -9.7594575452        9.5130146573       -4.6559092706
 C        -8.7035641640        6.3554834925        2.8857135491
 C        -6.3933913966        6.8146518631        1.9020849681
 C       -11.6122429531        1.5768631864        5.2299814488
 C        -9.1563572524        1.2932917103        5.7753434958
 C        -8.2563936507       -3.4457833792        0.5955857880
 C        -6.4864447328       -1.6524455255        0.9479145258
 C       -10.9570459037        0.6680224340       -4.2991505203
 C        -8.9332601428        2.4224233917       -4.4960326110
 C       -12.6146166138        5.5334067309        1.3268882824
 C       -14.9882197985        4.7461961258        1.4968048196
 H       -15.6852307112        6.4096351674       -2.1313783198
 H       -15.9770962397        6.6666754472       -0.4224919460
 H       -16.1582163239        4.9602124402       -1.0153208762
 H       -11.5881243609        2.6609776199        0.4550536145
 H       -11.5427593919        3.9314210923       -0.6357993599
 H       -12.6647862043        1.9935888218       -2.3680823778
 H       -11.5983408934        1.1062257898       -1.3631241053
 H        -7.8653563005       -0.5870427830       -3.8292698105
 H        -9.4160385574       -1.3476401855       -3.2061710062
 H        -6.8515192456       -1.0061189711       -1.7818186412
 H        -7.6812121842       -2.4456719240       -2.1301816063
 H       -10.0879108127       -2.8133134258        2.6649278726
 H       -10.6420123010       -2.2475605032        1.2401699523
 H       -11.9619194557       -1.6401850376        3.4072158595
 H       -11.5349673787       -0.1573845347        2.6016383371
 H        -7.8188887876        2.0518911775        3.0095100437
 H        -8.6016881299        3.2473439487        4.0330727957
 H        -9.6748987216        4.1305724969        1.7926012827
 H        -8.8045986444        2.9128821974        1.0387292836
 H        -7.6231791887        6.1318394553       -1.6384831097
 H        -6.4272958190        6.9555521533       -0.5790740145
 H        -7.0254933258        8.8601030587       -1.8360910699
 H        -8.3005456236        8.9300589057       -0.6228025200
 H       -13.1056729059       10.4257213670       -2.4032015124
 H       -11.8846766087       11.2580480106       -3.3103353594
 H       -11.8820770770       11.2696258404       -1.5096100546
 H        -7.9880273575       10.9933017315       -3.2568560795
 H        -8.6629752996       10.9268502759       -1.7031694540
 H        -9.5880618956       11.6447532051       -3.0015385095
 H       -10.4326975937       10.2848514380       -5.0212171386
 H       -10.1398731118        8.5166530651       -4.9070164955
 H        -8.7596187997        9.6309721059       -5.0104760775
 H        -9.6683783114        5.9611726842        2.7194624688
 H        -8.7963232410        7.4457455554        2.8856866900
 H        -8.1352410238        6.0789268111        3.7838311853
 H        -6.5399434715        7.9292326353        1.8261466542
 H        -5.5764612699        6.4868973249        1.2615034428
 H        -6.0765181349        6.7193898977        2.8890997944
 H       -12.4387515761        1.5672527306        4.5286752752
 H       -11.5205899487        2.6307659115        5.6359181380
 H       -11.7186323470        0.9447064235        6.0657516107
 H        -8.1549019515        1.3033230885        5.3268808153
 H        -9.2759441681        0.5091496661        6.5759319722
 H        -9.1410774077        2.2744701610        6.3050492420
 H        -7.5554219586       -3.8904747151        1.2837201826
 H        -8.0212274607       -3.6158047460       -0.4179305113
 H        -9.2440635131       -3.8581672580        0.6960790356
 H        -6.1015139802       -1.8941414115        1.9791172083
 H        -6.2561720094       -0.5753051091        0.8889394416
 H        -5.9268472768       -2.3750009685        0.3691302583
 H       -11.8756834807        1.2181244647       -4.5763715009
 H       -11.3686979457       -0.1480962667       -3.6294331621
 H       -10.4894845294        0.0725064085       -5.1234345191
 H        -7.8925001249        2.0326206976       -4.5481695197
 H        -8.7939837246        3.3778164744       -4.0208258576
 H        -9.2821139621        2.6463809046       -5.5193090123
 H       -11.7812439825        5.7757783592        0.7590332541
 H       -12.1098059506        4.8521197978        2.0012635045
 H       -12.9797908891        6.4737778153        1.8151377902
 H       -15.8971848829        4.3148718365        1.0407725550
 H       -15.3439670518        5.7418081076        1.9269900601
 H       -14.8080415607        4.0748638731        2.3206818615
 Na      -10.8324483098        5.9991734360       -1.6510689095
