117

 C       -15.6440984293        5.7831772074       -1.1158347519
 C       -14.1489844274        5.7195863685       -0.7783660048
 O       -13.3261440798        6.1446661955       -1.6041264851
 C       -13.7859912491        4.9222576704        0.5150899249
 C       -13.4052614127        3.5216586838       -0.0698927137
 O       -14.3253252673        2.7029007445       -0.2934808223
 C       -11.9404527302        3.0870410681       -0.3751367169
 C       -11.7258619994        2.1705614331       -1.6086781413
 C       -10.6494572443        2.6497202609       -2.6037203653
 O       -10.2639230569        3.8081902269       -2.5640650295
 C        -9.9577179153        1.5998555957       -3.5263305708
 C        -8.9471405484        0.7498706219       -2.6385540473
 O        -8.3957303925        1.2657424030       -1.6415831061
 C        -8.4854718884       -0.6931252783       -3.0626712440
 C        -7.8079648641       -1.4428872130       -1.8410032087
 C        -8.6656293812       -1.2653117293       -0.4980805137
 O        -9.8548030002       -0.9702285288       -0.5773413856
 C        -8.0672432240       -1.9241339602        0.7387143878
 C        -8.8424260714       -1.2073579340        1.9164088248
 O        -8.5342291834       -0.1733892417        2.4333269009
 C       -10.2093686965       -1.8601032070        2.2806939492
 C       -11.0304123574       -0.8996340179        3.0734610352
 C       -10.2274213548       -0.4648968080        4.3264276711
 O        -9.7640347455       -1.2832922569        5.0885647387
 C       -10.2283018652        1.0661387702        4.7243005987
 C        -9.9295472236        1.9071049340        3.3547632930
 O       -10.7554694384        1.9815697463        2.4720602414
 C        -8.5512288428        2.6685724770        3.1731078324
 C        -8.6360978802        3.5863055725        1.9011867431
 C        -7.4747555690        4.4976150408        1.6588751400
 O        -6.3676246549        4.1490979343        1.4241981065
 C        -7.7064499800        6.1219428246        1.7339182155
 C        -8.3670597221        6.4061881510        0.3285724393
 O        -9.5771639365        6.2194073341        0.1876329449
 C        -7.5128667768        6.8247593851       -0.8287524908
 C        -7.9027691822        8.1940710630       -1.4228583253
 C        -8.9812348831        8.1257909386       -2.5569930719
 O        -9.2471086287        7.0466196447       -3.0405379227
 C        -9.7273515908        9.4315540436       -3.0506472345
 C       -11.1190503125        9.4004981768       -2.4864971803
 O       -11.6250166071        8.3206348526       -2.1788346234
 C       -11.9711191469       10.6857810880       -2.5122951731
 C        -9.0427969004       10.8027228393       -2.7842847137
 C        -9.9260769738        9.1922281496       -4.6739888690
 C        -8.6683830541        6.4422992994        2.8773498059
 C        -6.3611333493        6.8757607003        1.9011606041
 C       -11.6022214943        1.6056313520        5.2377290799
 C        -9.2635737127        1.2959259542        5.8667369543
 C        -8.3241254815       -3.4283373706        0.6076137897
 C        -6.5258004021       -1.6418335308        0.8692963259
 C       -10.9627222814        0.7658146168       -4.3682495466
 C        -9.0345001353        2.3404681438       -4.5284531554
 C       -12.6408771705        5.5661198557        1.2750706219
 C       -14.9957446412        4.7865574495        1.4320828793
 H       -15.9642832574        6.2995197702       -2.0850172960
 H       -16.1884346229        6.2655529023       -0.3745396745
 H       -15.9090313793        4.7126624076       -1.0826028401
 H       -11.6471230757        2.5498280403        0.5504352021
 H       -11.2420645307        3.9261635462       -0.4156931653
 H       -12.6559043002        1.9094441668       -2.1292470344
 H       -11.4553616215        1.1526943651       -1.2313112334
 H        -7.7222755718       -0.5281123430       -3.9014242946
 H        -9.3694526545       -1.3450988549       -3.3930926361
 H        -6.8360524159       -0.9887173193       -1.8153123701
 H        -7.6541465615       -2.5202299973       -1.9956577953
 H       -10.1501736637       -2.8686474844        2.7322138602
 H       -10.6318968385       -2.1756830957        1.3535610488
 H       -11.9906262637       -1.4270779719        3.3149140619
 H       -11.2878451922       -0.0781625862        2.4840463889
 H        -7.8428171106        1.8382072436        3.0752944933
 H        -8.3028801081        3.2100974036        4.1104816774
 H        -9.5565416171        4.1646787692        1.9453018280
 H        -8.7950510511        2.9275729739        1.0175915493
 H        -7.7286516751        6.0568886197       -1.6177197003
 H        -6.4676554753        6.8024523066       -0.6184451208
 H        -7.0162347106        8.6616754609       -1.9117113787
 H        -8.1705158932        8.8893711071       -0.6174083446
 H       -12.9456256671       10.3484920387       -2.6750151444
 H       -11.6711366243       11.4019422586       -3.2143840067
 H       -12.0274949319       11.0563333123       -1.5204689624
 H        -8.0832820354       10.9560353759       -3.2650913089
 H        -8.7778002327       10.9851602876       -1.7337553997
 H        -9.7205234170       11.6067207814       -3.0471381075
 H       -10.9116193527        9.5073995779       -5.0087169743
 H        -9.7665924399        8.1893055852       -4.8714734527
 H        -9.1418561728        9.7722768800       -5.1452784201
 H        -9.7314844853        6.3289518685        2.5614817557
 H        -8.5017974498        7.5796182727        3.0796516745
 H        -8.2961137247        5.8981661485        3.6958694833
 H        -6.5065865372        7.9166152557        1.6239867740
 H        -5.4945014265        6.4379037559        1.2876015546
 H        -6.0398821551        6.9544013822        2.9485211087
 H       -12.3869967059        1.4758400691        4.5276328344
 H       -11.4857079572        2.6451781200        5.3914702034
 H       -11.7849723066        1.1132525535        6.2032695081
 H        -8.3255952190        1.5616644668        5.4477034925
 H        -9.1554409314        0.3949220363        6.4296657335
 H        -9.4560765600        2.1157385894        6.5922895005
 H        -7.8639082237       -3.8869856875        1.5288329017
 H        -7.8635870595       -3.7400980814       -0.3219283289
 H        -9.3256016686       -3.6446939458        0.5330511385
 H        -6.1777148400       -2.1861889172        1.7276641033
 H        -6.2896471363       -0.6127861689        1.1500295032
 H        -5.9601473668       -2.2158624042        0.1477206704
 H       -11.9823580448        1.1965166695       -4.4066380726
 H       -11.1401184704       -0.1865977403       -3.9193594604
 H       -10.5177466556        0.4508765299       -5.3256898085
 H        -8.2107836265        1.6865904309       -4.9300092298
 H        -8.5207424542        3.1621396985       -4.0961506969
 H        -9.5685538915        2.7215231582       -5.3581943013
 H       -11.7169668338        5.7336760970        0.7361926543
 H       -12.2671110980        5.0145948937        2.0801384603
 H       -12.9997424690        6.5285731610        1.5579577414
 H       -15.8309204507        4.1862870038        1.0992537730
 H       -15.3918941380        5.8002889999        1.5919897909
 H       -14.8017969276        4.3631558193        2.4091385513
 Na      -11.0181728318        5.9553793425       -1.8074030467
