117

 C       -15.6861519552        4.8353543564       -2.0420334174
 C       -14.4854351500        5.1138208984       -1.1397594504
 O       -13.6449494328        5.9728318656       -1.4497670007
 C       -14.2096327901        4.3140242812        0.1903352152
 C       -13.1218158236        3.2606287766       -0.2590417929
 O       -13.5020331029        2.2972059352       -0.8501777758
 C       -11.6074067950        3.4741402834        0.1687514683
 C       -10.6537428951        2.5990553549       -0.7066644722
 C       -10.8103448685        2.8867709175       -2.1893271393
 O       -11.0556276321        3.9696441227       -2.6352269679
 C       -10.7149396534        1.6250987519       -3.1264790142
 C        -9.2473585138        1.0604558812       -2.6490632471
 O        -8.4248576489        1.9240860661       -2.1877593193
 C        -8.9100902242       -0.4178467997       -2.8477821370
 C        -8.0628154058       -0.9983619041       -1.7067124756
 C        -8.8943160306       -1.6705569275       -0.6114500880
 O       -10.0300318293       -2.0548272081       -0.7972321626
 C        -8.1919668081       -2.0582049618        0.8277724592
 C        -8.6788785076       -0.9970471552        1.9175701901
 O        -8.4824848747        0.1874050015        1.8330525153
 C        -9.6605907680       -1.5168499202        3.0281571550
 C       -10.2934124673       -0.3597026825        3.8400621055
 C        -9.2622932038        0.2508355616        4.7253951215
 O        -8.2907329565       -0.3951275061        5.0267726417
 C        -9.5555225057        1.6627448006        5.2855027953
 C        -9.4147711444        2.7337055101        4.0426109892
 O       -10.4086879781        3.3182701871        3.6556414847
 C        -8.0880875838        3.0523953966        3.3772658236
 C        -8.2360238491        3.7620698017        2.0754027513
 C        -7.3895338934        5.0476065732        1.9431581086
 O        -6.1849358839        5.0155374980        1.7714875315
 C        -8.2200984685        6.3638756391        1.5731724670
 C        -8.7372123283        6.2591187242        0.1591729378
 O        -9.9621709019        6.1651170933        0.0999711126
 C        -7.8051741984        6.2365381693       -1.0537168463
 C        -7.8825371563        7.4734376327       -2.0084851827
 C        -8.9978899071        7.3728924541       -3.0323952966
 O        -9.4532781456        6.2511849728       -3.2283472819
 C        -9.5523016885        8.5605782336       -3.8711957896
 C       -10.7172280802        9.2211788811       -3.0443089581
 O       -11.4046941703        8.6224513646       -2.2696385454
 C       -10.9783501008       10.7418629462       -3.3313235670
 C        -8.4966878653        9.6073002388       -4.2791405077
 C       -10.2771113396        8.0940504817       -5.2073061924
 C        -9.3814706879        6.4858442601        2.6053748780
 C        -7.3650267718        7.6796373111        1.6799906539
 C       -10.9296558291        1.6597348333        5.8735036983
 C        -8.5033921875        1.9063015915        6.3958994507
 C        -8.4905919926       -3.5064158519        1.1249444674
 C        -6.5222862506       -1.8613575810        0.6246959785
 C       -11.8438568294        0.6326621044       -2.7632431846
 C       -10.6227635767        2.0590925372       -4.5684322239
 C       -13.7408149888        5.3038497618        1.2809228998
 C       -15.3981583528        3.5919917106        0.8432176554
 H       -15.5436846130        5.3083428674       -3.0064495884
 H       -16.5983867684        5.0504140476       -1.4473877281
 H       -15.7048664726        3.6883374799       -2.2517224420
 H       -11.4336839447        3.0410287378        1.1472226944
 H       -11.2134182760        4.4735974585        0.1664933001
 H       -10.8321786448        1.5232708595       -0.4537097495
 H        -9.6449742702        2.8548817057       -0.3888790763
 H        -8.3981582528       -0.7022380787       -3.7830091706
 H        -9.8474488575       -1.0451867687       -2.9709681310
 H        -7.4586343253       -0.2673822743       -1.2669940957
 H        -7.3838836036       -1.7998480924       -1.9790571486
 H        -9.0507142999       -2.1002561916        3.7144189228
 H       -10.4567630975       -1.9945001972        2.5003354053
 H       -11.1774426077       -0.7499603904        4.3478258235
 H       -10.5977777879        0.3906830355        3.1759804868
 H        -7.5110826056        2.1902682536        3.3097813560
 H        -7.5360259010        3.7277824836        4.0722360132
 H        -9.2825582611        3.9048042822        1.7607536374
 H        -7.9335043088        3.0094069422        1.3879733608
 H        -7.8226191949        5.2610355453       -1.5068069075
 H        -6.7433188656        6.3760913043       -0.6894862470
 H        -6.9036430790        7.5721120362       -2.5500875929
 H        -7.8692144282        8.3544910816       -1.3198887256
 H       -11.9874653263       10.8591927039       -2.8818879469
 H       -11.1455074757       10.8992119416       -4.4202739597
 H       -10.1965890015       11.4555856410       -2.9286602606
 H        -7.6834378149        9.2313873313       -4.8574242325
 H        -7.9863325307       10.0649357500       -3.3954482373
 H        -9.0098776765       10.3941537888       -4.7670865076
 H        -9.7508823830        8.6110932298       -6.0697611829
 H       -11.3118682303        8.3543201527       -5.3566969476
 H       -10.2239646370        6.9740833880       -5.4194189191
 H        -9.9251110811        5.5852210324        2.7721819165
 H       -10.1788119581        7.1838134164        2.1992137281
 H        -9.0741040066        6.9350956878        3.4762146003
 H        -7.8898805015        8.5575950304        1.3866835880
 H        -6.4631316461        7.5045116017        1.0960113890
 H        -7.0371193957        7.8976155662        2.6503663804
 H       -11.6688173361        1.4516032579        5.1053828720
 H       -11.1387034989        2.7049732980        6.2052991957
 H       -10.9254576493        0.9661673761        6.7338087923
 H        -7.5660796246        2.0645331513        5.8368751279
 H        -8.4494824312        1.1098022217        7.1562844469
 H        -8.6412295564        2.9661061069        6.8401096334
 H        -9.3624376388       -3.8935874310        0.5070749351
 H        -8.8012474764       -3.6152607463        2.1519137261
 H        -7.6789409954       -4.1431015909        1.1204269822
 H        -6.0499853852       -2.5377234938        1.3837271777
 H        -6.0392116085       -0.8574968373        0.6647680144
 H        -6.2866443601       -2.4016131175       -0.3223629135
 H       -12.8009811303        1.1672784741       -2.9623270632
 H       -11.7626375484        0.3956561955       -1.7278297213
 H       -11.6259983393       -0.2798634177       -3.3468992684
 H       -10.8366765364        3.1538891131       -4.7698577827
 H       -11.3574097660        1.5384311502       -5.1395500801
 H        -9.6929056712        1.7901250467       -5.0865873484
 H       -12.8168791899        5.9121951626        1.0380395555
 H       -13.4651440661        4.8633827940        2.2225766484
 H       -14.6154673410        5.9911971802        1.3681784418
 H       -15.8374908649        2.8455887088        0.1787423825
 H       -16.0980879614        4.4398678490        1.1008904424
 H       -14.9677603365        3.0999184501        1.7062861623
 Na      -11.3350723089        6.1690605984       -1.6737359188
