117

 C       -15.5782269060        4.6943842658       -2.0099648186
 C       -14.4114712135        5.1403420399       -1.1218800569
 O       -13.6442640048        5.9984657697       -1.4709434494
 C       -14.2838120249        4.3556253686        0.1990645166
 C       -13.1883895962        3.1889249067       -0.2154991758
 O       -13.5013898689        2.3004662135       -0.9572063944
 C       -11.7572373406        3.4339213377        0.2305743188
 C       -10.8060221930        2.6368666050       -0.6393684512
 C       -10.9083431040        2.8974238128       -2.1435815355
 O       -11.0360891026        3.9843736288       -2.7189888565
 C       -10.7094968310        1.5741130958       -3.0380073383
 C        -9.2955417110        1.0810569623       -2.6630512029
 O        -8.4770981553        1.8520436385       -2.2724743561
 C        -8.8990643539       -0.3499112387       -2.8758287547
 C        -8.1097174166       -0.9422228153       -1.6994473044
 C        -8.8785500690       -1.6851103584       -0.6159988376
 O        -9.9777417418       -2.1516383066       -0.7171254356
 C        -8.2166995409       -2.0371791299        0.7944786383
 C        -8.7394955832       -0.9556763629        1.7934620663
 O        -8.3826249053        0.2453618491        1.7768546364
 C        -9.6346502519       -1.5543054447        2.9377459079
 C       -10.2299781360       -0.3987510369        3.7801884899
 C        -9.1314773431        0.2840223224        4.6907388335
 O        -8.1231847413       -0.3020472362        5.0161451282
 C        -9.3894183980        1.7948547523        5.2545810533
 C        -9.3907216250        2.8508817887        4.1721829011
 O       -10.4277352766        3.3991445420        3.8354795275
 C        -8.0243292371        3.1582497854        3.4274599762
 C        -8.1862316393        3.7656234634        2.0074507809
 C        -7.3684027474        5.1026105513        1.7992306606
 O        -6.1837040364        5.0939145987        1.8250082002
 C        -8.2377540245        6.3961584848        1.6553080995
 C        -8.8209114593        6.2844857024        0.2419253167
 O       -10.0308956357        6.1763304212        0.0575598794
 C        -7.8744667588        6.2401817492       -0.9847562776
 C        -7.8971453071        7.4828357422       -2.0155418877
 C        -9.0698411187        7.2849652404       -3.0576668220
 O        -9.6090408017        6.2218701012       -3.2317141141
 C        -9.5348143198        8.5403110689       -3.9921073292
 C       -10.6687423874        9.2715337596       -3.1084276531
 O       -11.2995560035        8.5317058091       -2.3618085920
 C       -10.9353037960       10.7451768283       -3.1524571241
 C        -8.3508301595        9.4767650937       -4.3278023069
 C       -10.1601677626        7.8798696558       -5.2294497904
 C        -9.3681697283        6.5286005843        2.6913788093
 C        -7.4496124675        7.7079345407        1.5889598185
 C       -10.8368565350        1.8125199401        5.9294781966
 C        -8.3246229353        1.9869658979        6.4350581625
 C        -8.5033392724       -3.4630378604        1.1355955723
 C        -6.6763944585       -1.7451162446        0.7503016270
 C       -11.8671688787        0.5978742500       -2.7493200826
 C       -10.7664952638        1.9238162497       -4.5182365192
 C       -13.7664281430        5.2384808283        1.3503546345
 C       -15.5751498116        3.5255137158        0.5903034017
 H       -15.3944993219        5.1773733686       -2.9289345357
 H       -16.5407287789        4.9769931605       -1.4644419607
 H       -15.6235602074        3.6291415409       -2.2052361531
 H       -11.5037780936        3.0950483541        1.2850568363
 H       -11.4846958134        4.4978245624        0.1261835597
 H       -10.9550935870        1.5933578453       -0.4267893541
 H        -9.7966900507        2.9472651004       -0.3511790078
 H        -8.2377892394       -0.4852235000       -3.7388599469
 H        -9.7200052784       -1.0701374858       -3.1825764778
 H        -7.5072676053       -0.1798295618       -1.2090187785
 H        -7.3718904980       -1.7368212371       -1.9656415142
 H        -8.9047121878       -2.0024207442        3.6529275026
 H       -10.4386407654       -2.1240912116        2.5286206415
 H       -10.8276266570       -0.9883654216        4.5433943120
 H       -10.9004153672        0.2554558358        3.2716959241
 H        -7.4724316662        2.2197549216        3.4722185518
 H        -7.4203834128        3.9151868283        3.9843641508
 H        -9.2188680966        3.8344275224        1.7856347959
 H        -7.9274261840        2.9590225582        1.2815031901
 H        -8.1712794946        5.2942475947       -1.5203664625
 H        -6.8461797914        6.0851529288       -0.7050170111
 H        -6.9371387487        7.5553568626       -2.5483188540
 H        -7.9400325445        8.4090980474       -1.4767510720
 H       -11.8013027057       11.0655612393       -2.5843278556
 H       -11.0665464657       10.9818535234       -4.2030252187
 H       -10.0200222278       11.1509784391       -2.8323563873
 H        -7.7081213600        8.9549018794       -5.0329669111
 H        -7.6974226531        9.7622237136       -3.5167912214
 H        -8.7216758502       10.3901240422       -4.8038102972
 H        -9.8191326357        8.2530049169       -6.1724443782
 H       -11.2346699240        8.0809854268       -5.2650388129
 H       -10.0647949131        6.7620891045       -5.2647172925
 H        -9.9698072628        5.5669967079        2.8030779614
 H       -10.1243546065        7.1957495279        2.3016109793
 H        -9.1024006414        6.9512578272        3.6806758533
 H        -8.0777496599        8.4943742910        1.3525950481
 H        -6.5922981102        7.6177137806        0.9208498680
 H        -7.0446699536        7.9912506018        2.6020616825
 H       -11.5688535341        1.4845463493        5.1676950316
 H       -11.0945816870        2.8138765963        6.1392820120
 H       -10.8331388504        1.1603491674        6.8621619955
 H        -7.2688059936        2.2828027189        6.1301180219
 H        -8.3730927243        1.0224449904        6.9804852675
 H        -8.6484472067        2.8374347013        7.0799619056
 H        -8.9531938687       -3.9449261709        0.3201197537
 H        -9.2126487252       -3.5713953943        1.9351259940
 H        -7.6913861979       -4.0465783278        1.5583423282
 H        -6.2607955654       -2.2682902486        1.6140067718
 H        -6.2939483239       -0.7057616552        0.7682198461
 H        -6.2767628228       -2.4054354145       -0.1107092935
 H       -12.7295797144        1.1977497999       -3.1490851924
 H       -12.0172017035        0.4283576450       -1.6431239163
 H       -11.6145712306       -0.3427426811       -3.2893805265
 H       -11.5103482364        2.7138266230       -4.7565553519
 H       -11.1360417863        1.0087180679       -5.0449710314
 H        -9.8550017574        2.1892701139       -5.0370935326
 H       -12.9360768528        5.9136814338        1.0945116324
 H       -13.3866643545        4.7035390081        2.1953280272
 H       -14.6153913567        5.8127913689        1.5421827782
 H       -15.7583626046        2.9085373916       -0.3201433758
 H       -16.3876808965        4.2213545284        0.7937739494
 H       -15.3017376154        2.8219696051        1.4199151593
 Na      -11.3173081828        6.0940950196       -1.6674466281
