117

 C       -15.3126522621        4.8830562186       -2.5117532539
 C       -14.5694238846        5.0840424766       -1.2432712047
 O       -13.6065157965        5.8080925293       -1.1607569636
 C       -14.9239324539        4.1481007837       -0.0745415004
 C       -13.8659261485        2.9845136496       -0.1788584638
 O       -14.1913892396        1.8632013515       -0.6501658206
 C       -12.4613576342        3.3006405451        0.2855398131
 C       -11.4156915945        2.3597982255       -0.4295622065
 C       -11.3405687987        2.5214351840       -1.9346832419
 O       -11.5705990477        3.6068395270       -2.4920749266
 C       -11.0159268489        1.1991283827       -2.7972012607
 C        -9.5300212996        0.9672609343       -2.4816128726
 O        -8.8647872965        1.8681372586       -2.0408531347
 C        -8.8569178692       -0.3600751019       -2.8877323336
 C        -7.9202735269       -0.7324426474       -1.6848831964
 C        -8.7900445144       -1.3938092219       -0.5408909719
 O        -9.8542759223       -1.8789369473       -0.8090576521
 C        -8.2035358991       -1.7025844767        0.8739284133
 C        -8.8620012126       -0.5777954046        1.7752683505
 O        -8.8623621627        0.5772980868        1.3404323808
 C        -9.4955056599       -0.9380956370        3.1462816911
 C        -9.7262876711        0.2508646924        4.0562849123
 C        -8.4369411946        0.8986642195        4.6274325629
 O        -7.3729361918        0.4360157905        4.2498479104
 C        -8.6700599682        2.1755489387        5.4657341061
 C        -8.8531454389        3.2035911289        4.3213948250
 O        -9.9033739427        3.5826968495        3.8639605234
 C        -7.5581424913        3.6370849550        3.6062011632
 C        -7.7823510971        4.0157644632        2.0783350961
 C        -7.3464736194        5.4678157544        1.9583024421
 O        -6.1691865397        5.7962389784        2.0017629325
 C        -8.4195272834        6.6343064010        1.5138093137
 C        -9.0396192360        6.3103393803        0.2143970663
 O       -10.2526531535        6.3205154713        0.0507669167
 C        -8.0468468472        5.7952252648       -0.9205319881
 C        -7.9066525345        6.8158333082       -2.0573791439
 C        -8.8683244733        6.6798188090       -3.1554658902
 O        -9.5912854559        5.7390363237       -3.2765598615
 C        -9.2198274654        7.9433671440       -4.0193308557
 C       -10.3114387879        8.6807004777       -3.1486957540
 O       -11.1999105001        8.0381888031       -2.5809255208
 C       -10.3406824591       10.1968458823       -3.0096321553
 C        -8.0475300524        8.8744538370       -4.3741994157
 C        -9.9534990265        7.5048602688       -5.2975534558
 C        -9.5123237411        6.7846756585        2.5719161481
 C        -7.7004679169        7.9830614900        1.3749859603
 C        -9.9121114301        2.0874738643        6.3866992255
 C        -7.4386771326        2.5638103543        6.3122665017
 C        -8.4171172576       -3.1459824652        1.2146067707
 C        -6.5977231108       -1.4133003607        0.8046697377
 C       -11.9133110002       -0.0012994278       -2.4403558386
 C       -11.1524027471        1.4703095627       -4.3010518228
 C       -14.6269794004        4.9768211587        1.2308181231
 C       -16.4021160405        3.6101755855       -0.1997658217
 H       -14.7586980019        5.4973466879       -3.2991096415
 H       -16.2639755656        5.4026969918       -2.5188378088
 H       -15.3993256082        3.8339445537       -2.7222000556
 H       -12.3497823891        3.1530721069        1.3460626956
 H       -12.2334226155        4.3270474124        0.2387781085
 H       -11.6768143260        1.3235446979       -0.2311779400
 H       -10.3896882163        2.5800145456       -0.0036275876
 H        -8.1360632451       -0.0877470022       -3.6853727569
 H        -9.4738703530       -1.2220936037       -3.1957647992
 H        -7.4975770913        0.1811011137       -1.3453498582
 H        -7.1349530752       -1.4229906634       -1.9273648675
 H        -8.9121056455       -1.7688155959        3.5734895573
 H       -10.5085311878       -1.2870754897        2.9216473969
 H       -10.3662273904       -0.0794013432        4.8682221830
 H       -10.3831881526        0.9171799017        3.5509287147
 H        -6.7637710372        2.8850355626        3.7033447443
 H        -7.1944796225        4.5329353122        4.0590658289
 H        -8.8034072552        3.9807610939        1.7550640659
 H        -7.0746037750        3.4267692707        1.3932837853
 H        -8.5734185566        4.8972208849       -1.3142638331
 H        -7.1127738414        5.6371058479       -0.4909254409
 H        -6.9401488911        6.5401345074       -2.5785687264
 H        -7.7837996834        7.8793447779       -1.7663662683
 H       -11.3045984082       10.5793277386       -2.6374229882
 H       -10.0489159075       10.6245013961       -3.9927542800
 H        -9.5572507940       10.4497515096       -2.2488246591
 H        -7.2192473680        8.3273237734       -4.8675043996
 H        -7.7563157356        9.5116679202       -3.5710060968
 H        -8.4908401863        9.4928836235       -5.1896483826
 H       -10.4174601079        6.5403021049       -5.1128781330
 H        -9.2177854588        7.3671946307       -6.1436842815
 H       -10.7184767078        8.1560705590       -5.6169776494
 H        -9.8339096860        5.8131798944        2.8492158203
 H       -10.3395587804        7.2882998495        2.1942517644
 H        -9.2682149758        7.2276016208        3.5294885166
 H        -8.3711504673        8.7660551689        0.9657609317
 H        -6.9561344607        7.9044042768        0.5988818294
 H        -7.1949614367        8.1796221989        2.3270276717
 H       -10.7782045022        1.8862305575        5.7525936115
 H       -10.0778525802        2.9981322004        6.9128943331
 H        -9.8788389761        1.2971104670        7.1163803446
 H        -6.5599173625        2.7370139832        5.7351595396
 H        -7.1851146063        1.7600682125        6.9872270696
 H        -7.6721005701        3.3312522913        6.9497550127
 H        -9.3923627418       -3.3451546462        1.6619508259
 H        -7.5848332733       -3.4558880677        1.8616385336
 H        -8.4259248137       -3.8515229687        0.2970169643
 H        -6.1773732937       -1.2508113654        1.7824549701
 H        -6.2956241315       -0.5830540350        0.1360643826
 H        -6.1700082033       -2.3473864897        0.4734400953
 H       -12.9069408443        0.2857938633       -2.5110530836
 H       -11.6169485751       -0.4537905765       -1.5088734624
 H       -11.7484045082       -0.7091563902       -3.2039770885
 H       -10.5510048277        2.3031532150       -4.5911649022
 H       -12.2166741766        1.6465802951       -4.5961878576
 H       -10.8044140982        0.6165130111       -4.8375961275
 H       -13.8211047293        5.6479602368        1.0481644387
 H       -14.6265298844        4.2544490491        2.0996801565
 H       -15.5289258369        5.5737921170        1.4196461341
 H       -16.3904467877        2.8606061137       -0.9630144033
 H       -16.9853335574        4.4439357184       -0.4167132751
 H       -16.6508002267        3.2343856587        0.7759481715
 Na      -11.5008789177        5.7739416855       -1.8758820155
