117

 C       -15.4089132829        4.7100237906       -2.4084726666
 C       -14.5298993145        5.0896628110       -1.1663813185
 O       -13.7978253562        6.0487088348       -1.1418959699
 C       -14.5594190126        4.1957058301        0.0549391825
 C       -13.4824037683        3.1223170817       -0.1804614669
 O       -13.7216041555        2.2102593712       -1.0183542268
 C       -12.0499409994        3.4040353674        0.2553926227
 C       -11.1051253296        2.5229805356       -0.5588059679
 C       -11.3348677569        2.6046418672       -2.0597907537
 O       -11.7261515023        3.6973423007       -2.4971983763
 C       -10.8960613238        1.3902020581       -2.9461584665
 C        -9.3295671757        1.0120996981       -2.6382919978
 O        -8.5856172108        1.8427467192       -2.3222128395
 C        -8.9028155807       -0.4738299832       -2.8747290592
 C        -7.9857330500       -0.9433542689       -1.6711882036
 C        -8.8014087278       -1.6794106618       -0.4988777378
 O        -9.9342216292       -2.0339200721       -0.7196038464
 C        -8.0190891966       -1.8381062115        0.8552920788
 C        -8.7377701244       -0.7807354394        1.7850224907
 O        -8.7442382107        0.3941913260        1.4294261009
 C        -9.5374876804       -1.2021263158        3.0653010427
 C        -9.9850714738        0.0563782654        3.7974199237
 C        -8.7788581884        0.6782179521        4.6156170499
 O        -7.6932108363        0.1181018939        4.5548128862
 C        -8.9929326806        2.0228705374        5.3986540219
 C        -9.1302172125        3.0436156055        4.2716350853
 O       -10.1768572437        3.4946433342        3.8524939981
 C        -7.8250836929        3.3504676036        3.5245762653
 C        -8.0290820572        3.9004824501        2.0990389136
 C        -7.3722385337        5.2375442016        1.9964185796
 O        -6.1740732486        5.2930574733        1.8991474412
 C        -8.2658483589        6.5364648485        1.7115220064
 C        -8.9744752757        6.3981043942        0.3105801676
 O       -10.1933392122        6.4357671870        0.1793215451
 C        -8.0446502519        6.0662455816       -0.8887390639
 C        -8.1801734567        7.2065921603       -1.8983044491
 C        -8.9623640863        6.9220608956       -3.1589893234
 O        -9.3245234916        5.8293053866       -3.5085811316
 C        -9.3392738489        8.2139349366       -3.9553367813
 C       -10.4449284969        9.0726505792       -3.1082034647
 O       -11.3896937667        8.4429390131       -2.6125598091
 C       -10.3782366644       10.5539114204       -3.0148738118
 C        -8.1486175316        9.0567133944       -4.2559687067
 C       -10.1082530690        7.7867964411       -5.3293550987
 C        -9.3319575719        6.6911636300        2.8266526584
 C        -7.3889450795        7.8084700049        1.6426833128
 C       -10.3732706990        1.9487041463        6.1766793199
 C        -7.8524189851        2.3089744425        6.3778113115
 C        -8.4825926289       -3.3348030990        1.3016140311
 C        -6.4902227235       -1.6939859672        0.7915792916
 C       -11.8413970719        0.1994698865       -2.6180962978
 C       -11.0677692193        1.7228142500       -4.4549713455
 C       -14.2471283237        5.1096695400        1.2260377565
 C       -15.9022981668        3.3767271995        0.2575833955
 H       -15.3866924181        5.5327664353       -3.2108121319
 H       -16.4703603714        4.6090621817       -2.0079102903
 H       -15.1232893998        3.7286460365       -2.7853133083
 H       -11.9074685377        3.2244700040        1.3395831999
 H       -11.7708094610        4.4488752116        0.1520995561
 H       -11.3056566532        1.5133620714       -0.2470206980
 H       -10.0451437548        2.8295755548       -0.4325210827
 H        -8.3269704885       -0.6372938161       -3.8182642079
 H        -9.7336200026       -1.2455642958       -2.9579619116
 H        -7.4490027808       -0.1215474055       -1.2814114748
 H        -7.2590247408       -1.6874112243       -1.9512033115
 H        -8.9076660831       -1.7518258588        3.7684973719
 H       -10.4188107613       -1.6530104934        2.6777732469
 H       -10.7156879384       -0.2831997204        4.5380578524
 H       -10.4967574653        0.7482177847        3.1901821186
 H        -7.2194827777        2.4378620301        3.5369713359
 H        -7.3462063032        4.0883149818        4.1592558177
 H        -9.0501721834        3.8347199988        1.8691992972
 H        -7.5546844982        3.2074283968        1.3404830811
 H        -8.3383211562        5.0929399990       -1.3973257462
 H        -7.0729463951        6.0858803252       -0.4850470879
 H        -7.1414858609        7.4609305182       -2.2651560307
 H        -8.4897268327        8.1639533603       -1.4482477864
 H       -11.2863462933       10.9592600783       -2.4790114462
 H       -10.3391516280       10.8846725637       -4.1089571345
 H        -9.4674063623       10.8341869127       -2.4374509605
 H        -7.4066833446        8.4957628088       -4.8368009574
 H        -7.7638756766        9.3973262006       -3.3287168905
 H        -8.4078745160        9.9327921210       -4.8761302128
 H       -10.8603063998        8.4720620595       -5.7136979719
 H       -10.7523901160        6.8765841989       -5.0931870657
 H        -9.4248003752        7.6531400987       -6.1854769181
 H       -10.1822239651        6.0153989763        2.7989779721
 H        -9.7219633607        7.6216385206        2.7741744936
 H        -8.9242028774        6.6078031161        3.8520890951
 H        -8.0277675396        8.6468814064        1.6789199162
 H        -6.7148806148        7.9225890653        0.8404457422
 H        -6.8527220376        7.7992103063        2.6127348145
 H       -11.2795656147        1.9822296476        5.5280328733
 H       -10.3873801751        2.7057986904        6.9229313137
 H       -10.4033957660        0.9497729417        6.6887256803
 H        -6.8794796886        1.7496960653        6.2477825320
 H        -8.1941297943        1.8640893444        7.3468676249
 H        -7.7423230466        3.3718008444        6.5123417207
 H        -7.6975138016       -3.9480725079        1.6246587774
 H        -8.9239704914       -3.8567179511        0.4563976259
 H        -9.2702635726       -3.4837855304        2.1063103401
 H        -5.9261137596       -2.0837401317        1.6079643429
 H        -6.4054392336       -0.6266218120        0.9435447294
 H        -6.0255391095       -2.1661689510       -0.0886614051
 H       -12.7928061590        0.6713879266       -2.4481252066
 H       -11.4856739691       -0.2074387774       -1.6439650710
 H       -11.9302505365       -0.4849103857       -3.4324893500
 H       -11.2934461230        0.8866153190       -5.0990964265
 H       -10.1203734360        2.2135837751       -4.7927094092
 H       -11.8487802105        2.4414904926       -4.6292488036
 H       -13.2667590001        5.5985986336        1.1007100117
 H       -14.2284357566        4.4370331410        2.1621095918
 H       -15.0530830175        5.8405872552        1.2757122621
 H       -15.8422798091        2.6834103208       -0.5912010995
 H       -16.7524000379        3.9859676903        0.4105674614
 H       -15.6891515114        2.8286321026        1.1966617810
 Na      -11.5339156571        6.0058281642       -2.0197717068
