117

 C       -14.9533150274        5.0930217278       -2.8016880429
 C       -14.6636101252        4.9971365370       -1.3357297451
 O       -13.6567601289        5.6492848126       -0.9393642187
 C       -15.4851773245        4.1966242154       -0.3568616382
 C       -14.6207718587        2.7953377170       -0.2236932516
 O       -15.0971509265        1.7149799277       -0.5564244827
 C       -13.2438304368        2.9792452161        0.3813694638
 C       -12.2541209628        1.9737591933       -0.2144021511
 C       -12.0702148372        2.2136813390       -1.7548028225
 O       -12.5094633385        3.1705502179       -2.3205830174
 C       -11.2788259971        1.1733860029       -2.5445934266
 C        -9.7693581116        1.1972268748       -2.0305094543
 O        -9.3495590129        2.1590366827       -1.3756134494
 C        -8.7487393623        0.1709178799       -2.4934244364
 C        -7.7966155429       -0.3662837319       -1.2683226745
 C        -8.5026177150       -1.3480567892       -0.3173266784
 O        -9.5355429229       -1.8944102088       -0.6664793127
 C        -8.0378028104       -1.4982927057        1.1286178235
 C        -8.9565052597       -0.5997886869        1.9768932835
 O        -9.5304558844        0.3202279196        1.4648268310
 C        -8.8461063148       -0.7911288568        3.4865017119
 C        -9.1340251428        0.4965155485        4.2585737564
 C        -7.8674077008        1.2418551024        4.5590515128
 O        -6.7977024173        0.9236663331        4.0545783092
 C        -7.9777918804        2.5617172494        5.3506347299
 C        -8.0645645076        3.6830849959        4.2176958799
 O        -9.1240887590        4.2047320485        3.9475635674
 C        -6.7916534514        3.9340343556        3.4657699084
 C        -7.0877149531        4.3773306475        2.0427205323
 C        -7.3226576550        5.9292815401        2.0717637106
 O        -6.7651723628        6.6343726885        2.8567757790
 C        -8.3157966735        6.6853581848        1.0907675416
 C        -8.7706952009        5.9056968313       -0.1643356344
 O        -9.9866646027        5.6577037754       -0.2587177721
 C        -7.8663550483        5.3140809248       -1.2190838788
 C        -7.7515532176        6.3441878709       -2.3971914494
 C        -8.9396239510        6.3361855832       -3.3061621158
 O        -9.7859226732        5.4335820820       -3.2833326415
 C        -9.2169318283        7.5017763218       -4.2579372282
 C       -10.4326342284        8.2745741158       -3.3977813443
 O       -11.0807091756        7.6196744356       -2.6473379431
 C       -10.5585219603        9.8043840849       -3.3973524684
 C        -7.9849491534        8.4183246812       -4.4900373398
 C        -9.7813166820        7.0529474545       -5.5913168435
 C        -9.4355775816        7.0494266020        2.0138348229
 C        -7.7601502319        8.0768694123        0.6337574673
 C        -9.1202458591        2.6970122319        6.3354028167
 C        -6.6950226891        2.6979037203        6.2466720403
 C        -8.1838233497       -3.1164262056        1.4363999257
 C        -6.5800308456       -1.0977978350        1.4460087476
 C       -11.9265040135       -0.2527619519       -2.4259963222
 C       -11.2849613264        1.6072926770       -4.0346697465
 C       -15.6442668344        4.9391635302        1.0181943500
 C       -16.8939065521        3.8729980698       -0.9093119522
 H       -14.7890469245        6.0972843414       -3.0977564170
 H       -15.9699183129        4.7296948684       -2.9838894206
 H       -14.2813114785        4.4841777670       -3.3801904620
 H       -13.3551990054        2.7219952399        1.4036895760
 H       -12.8673758384        3.9919965888        0.3016128387
 H       -12.6786620007        0.9441314518       -0.0584679025
 H       -11.2977280658        1.9268149789        0.3451267104
 H        -8.1152550303        0.7156922061       -3.2272187862
 H        -9.2725078727       -0.6290970609       -2.9789722558
 H        -7.4357626492        0.5053238265       -0.6569347367
 H        -6.9280325820       -0.7431838579       -1.7967837601
 H        -7.8393184949       -1.1660628697        3.6206668225
 H        -9.4260313154       -1.6417759903        3.9183690140
 H        -9.7419988952        0.2531406271        5.0973113980
 H        -9.7657253233        1.1836540337        3.5794963762
 H        -6.1996951097        2.9936139945        3.4422265443
 H        -6.1383608852        4.6611523898        3.9044498584
 H        -8.0112080103        3.9234455333        1.5426402588
 H        -6.2207838576        4.3036536105        1.3730693357
 H        -8.2536252638        4.3673989140       -1.4220760080
 H        -6.9029346107        5.1038727901       -0.7076850270
 H        -6.8446236699        6.1856414428       -2.9583177862
 H        -7.7153314549        7.3819297326       -2.0044306215
 H       -11.4969379023        9.9682923539       -2.9528141840
 H       -10.5513869899       10.2753732896       -4.3545122910
 H        -9.7853024010       10.1618054873       -2.8032478932
 H        -7.1533423455        7.9019622651       -4.9435611071
 H        -7.6693680748        8.9379796654       -3.5474656988
 H        -8.3370131879        9.1472762353       -5.1902959695
 H        -9.0928284007        6.8289357869       -6.3870282288
 H       -10.5381246821        7.7078016781       -5.8947326606
 H       -10.3251654501        6.0999997499       -5.3534976613
 H        -9.8907108921        6.1253294208        2.4395393944
 H       -10.3342795056        7.4681132798        1.5760575833
 H        -9.0939720023        7.6906006501        2.8225038840
 H        -8.5163402054        8.7179594270        0.2522174224
 H        -6.9032300821        7.8185147280       -0.0434870919
 H        -7.3530537485        8.5808723132        1.5410148140
 H       -10.0746864456        2.8732479844        5.8657177413
 H        -9.0325845355        3.5086111529        7.0899348042
 H        -9.2894696493        1.7673542945        6.8894472678
 H        -5.8154798278        2.9156196406        5.6514139263
 H        -6.5218633637        1.7783001772        6.7453735364
 H        -6.7707689127        3.6106892781        6.8745761171
 H        -7.1956891853       -3.5589170662        1.4349694176
 H        -8.7820388671       -3.6374695923        0.6897948230
 H        -8.5810540589       -3.1560720221        2.4098090677
 H        -6.3032969038       -1.6388579368        2.3748310569
 H        -6.5278995382       -0.0378023163        1.6859603800
 H        -5.8620987285       -1.2062787759        0.6210367823
 H       -12.9929991949       -0.3294221174       -2.1170739270
 H       -11.4238220681       -0.8332911412       -1.6435453656
 H       -11.8244824278       -0.7226319771       -3.4090240458
 H       -10.2617914936        1.5280702136       -4.4605479717
 H       -11.6651680441        2.6022256176       -4.0973455779
 H       -12.0105075980        0.9476865630       -4.5940313526
 H       -14.7323896054        5.5230692679        1.2303575374
 H       -15.6365952892        4.2137593351        1.7417536244
 H       -16.5503576175        5.5012797695        1.0260111993
 H       -16.7926209459        3.1695387749       -1.7339678888
 H       -17.3727464292        4.8541126859       -1.1448665221
 H       -17.4194459474        3.3970435196       -0.0856633205
 Na      -11.6439448706        5.3695459499       -1.9315463875
