117

 C       -15.2944730839        5.0032687760       -2.6219183456
 C       -14.6609656095        5.0394217589       -1.2646228390
 O       -13.6742018603        5.6936263623       -1.0264106374
 C       -15.2725444151        4.1212565232       -0.1836225030
 C       -14.2681992324        2.9002622415       -0.1431446628
 O       -14.6273264543        1.8102394596       -0.4530099200
 C       -12.8372181906        3.1576927766        0.3794094939
 C       -11.8482833289        2.1337757753       -0.2463461728
 C       -11.6638747785        2.3028961546       -1.7979663581
 O       -11.8643612049        3.3944581165       -2.3417933067
 C       -11.0853869444        1.0850753672       -2.6747846995
 C        -9.5491275375        1.0082623017       -2.3227271879
 O        -9.0248117070        1.9480752100       -1.7128233313
 C        -8.6940966256       -0.1446406020       -2.8141038126
 C        -7.8586169908       -0.6989966853       -1.7227832525
 C        -8.7273537327       -1.3379280386       -0.6168612832
 O        -9.8645509708       -1.7284215750       -0.8169255238
 C        -8.1222622039       -1.5412562510        0.8887506895
 C        -8.8922277011       -0.4971354341        1.8327044657
 O        -9.1024373397        0.6530129942        1.4688829378
 C        -9.1650374001       -0.9918379917        3.2960482902
 C        -9.5697579033        0.1094320225        4.2876202978
 C        -8.2788852492        0.8955839762        4.7261545982
 O        -7.2026509013        0.4803860055        4.3689275690
 C        -8.3492609630        2.2756443717        5.4016194059
 C        -8.4424426616        3.3772563045        4.3239441993
 O        -9.5026051711        3.9386366486        4.1247289180
 C        -7.1663410864        3.8863134899        3.5684446539
 C        -7.5270737319        4.4583616322        2.1029820437
 C        -7.1559776584        5.9238784518        1.9322784144
 O        -6.1108609259        6.4515997006        2.2525109042
 C        -8.3880744922        6.8291328836        1.2967644922
 C        -8.8991727528        6.0712632974       -0.0041781021
 O       -10.0716915971        5.8705621768       -0.1847350306
 C        -7.7904390362        5.5394168801       -0.9970615204
 C        -7.6673789443        6.4100373388       -2.2198552432
 C        -8.8525125562        6.3942967473       -3.2264208761
 O        -9.4300821226        5.3860802372       -3.4770650395
 C        -9.2358484136        7.7580307161       -3.8988075799
 C       -10.4079477171        8.5424932887       -3.2138646500
 O       -11.3278192196        7.9895698114       -2.6008479000
 C       -10.4087512917       10.0792627290       -3.3566148779
 C        -7.9804613410        8.6105500794       -4.2377259764
 C        -9.9750782991        7.3699603867       -5.2179711200
 C        -9.5769966473        6.9048160581        2.2777705976
 C        -7.9674323128        8.2841903247        0.8443796420
 C        -9.6317936009        2.2773266581        6.2688419961
 C        -7.1155322840        2.3845679439        6.2734471373
 C        -8.4180882973       -3.0040751128        1.2242730089
 C        -6.6304341537       -1.2022567765        1.0902623421
 C       -11.8523363286       -0.2175491878       -2.2929384665
 C       -11.3067881344        1.4311519780       -4.2383428133
 C       -15.1838015741        4.8790757876        1.1572753369
 C       -16.6866918880        3.6939742988       -0.5868906009
 H       -14.6673618209        5.4703299590       -3.3501916534
 H       -16.0985252559        5.6556333729       -2.5889142790
 H       -15.5748561929        3.9990756836       -2.9726660570
 H       -12.8188592443        3.1344238801        1.4552735383
 H       -12.4822358921        4.1425165685        0.1914375843
 H       -12.1192400408        1.1254222395        0.0523147931
 H       -10.7836223002        2.2804863262        0.1423564832
 H        -7.9841741883        0.3740981276       -3.4739447282
 H        -9.2960753850       -0.8905481811       -3.2811816268
 H        -7.2826417046        0.1480808146       -1.3094510468
 H        -7.1564774821       -1.4664486053       -2.0959882417
 H        -8.3371683283       -1.5962009087        3.7203418562
 H        -9.9127323116       -1.7880529040        3.1431041237
 H       -10.2316188738       -0.3105056276        5.0655786835
 H       -10.2270773697        0.8701379805        3.8224752833
 H        -6.4529457408        3.0547239116        3.3509116493
 H        -6.6157967425        4.5396683112        4.2037157174
 H        -8.5625159969        4.3875330926        1.8400729398
 H        -6.7677053962        3.9620306291        1.3993440825
 H        -8.1640286405        4.5357673639       -1.2842192217
 H        -6.8627148905        5.4395871407       -0.4900769301
 H        -6.8165107233        6.0009026587       -2.7703849881
 H        -7.4823587497        7.4452734706       -1.9592771104
 H       -11.1198461158       10.4464446229       -2.6887401714
 H       -10.6913566172       10.2721615751       -4.3422520620
 H        -9.4337113755       10.5004975257       -3.1945261647
 H        -7.1797791855        7.9344956172       -4.5483136149
 H        -7.6716659225        9.0608310822       -3.3245276756
 H        -8.2587977610        9.4059637723       -4.9422287809
 H        -9.1908636414        6.8741674411       -5.7724208035
 H       -10.3614422707        8.2386857686       -5.7511235231
 H       -10.7106926113        6.6517985888       -5.1510287331
 H       -10.0299388352        5.9516320590        2.4558250981
 H       -10.3778177125        7.6112767342        1.9186941047
 H        -9.3503570438        7.2779118258        3.2868772783
 H        -8.9432246049        8.7852019566        0.4329214264
 H        -7.1392075860        8.3297484918        0.1302288383
 H        -7.6656003480        8.7915938618        1.7535942910
 H       -10.5867126925        2.3924360025        5.7415129900
 H        -9.6175061695        3.1749190836        6.9089710562
 H        -9.6635981845        1.4654838392        6.9478324220
 H        -6.2719751520        1.9671618882        5.7803962208
 H        -7.3571540722        1.9121609447        7.2290963821
 H        -6.8760104157        3.3932034971        6.5323515079
 H        -8.1303963464       -3.6278113506        0.3660326043
 H        -9.4766103707       -3.1473396949        1.4464639791
 H        -7.7664664615       -3.3533258043        2.0438774729
 H        -6.1972929487       -1.6905055967        1.9692460459
 H        -6.5674377242       -0.0997458878        1.0890118320
 H        -6.0948888982       -1.3428995612        0.1928871747
 H       -12.9146825827        0.0214622878       -2.3580475988
 H       -11.5407159687       -0.6723559334       -1.3483818206
 H       -11.5914763386       -0.9911596510       -3.0223180733
 H       -12.3803386828        1.4184800768       -4.3621502550
 H       -10.7904773901        0.7282459271       -4.9672312698
 H       -10.9600728618        2.4429324478       -4.4620146337
 H       -14.1724127080        5.0670059695        1.2972079101
 H       -15.6520672720        4.2628028237        1.9349321913
 H       -15.6319139302        5.8643075393        1.0640380599
 H       -16.6488663167        3.3059609889       -1.5911724009
 H       -17.1711207454        4.6393310930       -0.5793886192
 H       -17.0268520094        2.9326413777        0.1092890702
 Na      -11.4597178293        5.7885612928       -2.0769749820
