117

 C       -15.2059176569        5.0725107489       -2.6816226216
 C       -14.5554938966        4.9911718902       -1.3257846856
 O       -13.5472283230        5.6880836852       -1.1835417687
 C       -15.0516525611        4.1080164423       -0.0723409690
 C       -14.0611004054        2.9098991362       -0.1340502791
 O       -14.5037063009        1.8631443287       -0.5296567904
 C       -12.6342831480        3.1285813931        0.3055649489
 C       -11.5941071206        2.2588843507       -0.3750039041
 C       -11.4739954270        2.4517625443       -1.9251759543
 O       -11.5169187722        3.5164769268       -2.4613867404
 C       -11.0698639007        1.1709648899       -2.7890197253
 C        -9.5375264756        0.9764018044       -2.3529554772
 O        -8.9192570273        1.9103445301       -1.8377338401
 C        -8.8163924056       -0.2276011553       -2.8774657355
 C        -7.8895179639       -0.7437468182       -1.7641514714
 C        -8.7004699243       -1.4083039534       -0.6611168362
 O        -9.8269823761       -1.7938538705       -0.9149660198
 C        -8.1313513231       -1.4940572010        0.8374434581
 C        -8.8660191174       -0.5193558422        1.8094277987
 O        -8.9530173198        0.6558634457        1.5660108711
 C        -9.3745363306       -1.0619757499        3.1653300901
 C        -9.5774764553        0.1400172566        4.1350476827
 C        -8.3857290342        0.8574663674        4.5619108741
 O        -7.2578060339        0.4391843464        4.3732876785
 C        -8.4944378097        2.2604901588        5.3783784887
 C        -8.6670588955        3.3953140124        4.3328338992
 O        -9.7869131401        3.7623506633        4.0005963878
 C        -7.4414021275        3.8008125501        3.5813112476
 C        -7.7135420279        4.2497233849        2.1894864725
 C        -7.2856382033        5.7982552763        1.8897047839
 O        -6.1644481597        6.1967856555        2.0666471773
 C        -8.4251325546        6.6774795833        1.4050928840
 C        -8.9201579146        6.1563737200        0.0380493041
 O       -10.1318281104        6.0774060472       -0.1333710827
 C        -8.0187690205        5.6138129696       -1.0337829237
 C        -7.7374960149        6.6084867177       -2.1644394478
 C        -8.9334230909        6.6074127697       -3.1396221856
 O        -9.6055094405        5.5694370218       -3.2026860728
 C        -9.2882567271        7.8186900919       -4.0352423482
 C       -10.4255589173        8.6123948810       -3.1790569471
 O       -11.2017157233        8.0042720731       -2.5144729899
 C       -10.3662383683       10.1217604659       -3.1406964112
 C        -8.0181421226        8.7047686681       -4.2449295994
 C        -9.8688912771        7.3713415855       -5.3917619132
 C        -9.5564045382        6.7766576427        2.4616930721
 C        -7.7893154245        8.1211248895        1.2187903964
 C        -9.7373689721        2.2752830015        6.2634377753
 C        -7.2348379025        2.4418035949        6.2792373600
 C        -8.5146864571       -3.0516903315        1.2426521851
 C        -6.6457119539       -1.2668272710        0.9996052219
 C       -11.9245111781       -0.0145663783       -2.2787911816
 C       -11.2992165879        1.5158451941       -4.3000856416
 C       -14.9968678777        4.9058103276        1.2141412585
 C       -16.5403108718        3.6487794160       -0.2312630590
 H       -14.5402707416        5.5511537212       -3.3655442986
 H       -16.0461101161        5.8127514676       -2.7043576154
 H       -15.4667058260        4.0593415918       -3.0153896840
 H       -12.5180302708        3.0061549460        1.4108050766
 H       -12.3210195967        4.2207980768        0.2702165445
 H       -11.8372324075        1.2108209362       -0.1332578562
 H       -10.6560024415        2.4551466506        0.0667787261
 H        -8.2320895186        0.0893747123       -3.7538826070
 H        -9.5370668817       -1.0380018937       -3.1051115836
 H        -7.3142902942        0.0856185189       -1.3031137595
 H        -7.1890316367       -1.5139534368       -2.1647891179
 H        -8.6606039343       -1.8154091156        3.5315430473
 H       -10.3306226513       -1.6304651393        3.1095724487
 H       -10.1649688358       -0.2253868597        4.9986956377
 H       -10.2730229428        0.9047073507        3.7275102123
 H        -6.7442276482        2.9710218516        3.6075750993
 H        -6.8792783277        4.6514449718        4.0797818830
 H        -8.8063790780        4.2450372687        2.0335577497
 H        -7.1647547668        3.6836470585        1.5131638104
 H        -8.4186994717        4.6811152101       -1.4159669227
 H        -7.0522793748        5.5012931677       -0.4116496852
 H        -6.8046391713        6.3096827246       -2.6202657206
 H        -7.6618349454        7.6396388620       -1.8138120090
 H       -11.0939243052       10.3531377143       -2.3365594349
 H       -10.5839328474       10.6102147865       -4.1118677555
 H        -9.3793709455       10.3905163668       -2.7648702822
 H        -7.3831467931        8.0925198200       -4.8467917348
 H        -7.5088208739        8.9701122341       -3.2930622948
 H        -8.2897289553        9.5807912707       -4.7847631992
 H        -9.8353135258        6.2968325248       -5.6475640310
 H        -9.4710515267        7.9852932537       -6.1899679687
 H       -10.9936333768        7.6240187785       -5.3959594412
 H       -10.0672277574        5.8239825084        2.7467133239
 H       -10.2911963409        7.5704752444        2.3014834851
 H        -9.1079011263        7.0546541148        3.4086991925
 H        -8.5044734306        8.7972713798        0.9150450844
 H        -7.0196531197        8.1077164490        0.4486719758
 H        -7.2964839563        8.3519075988        2.1524364594
 H       -10.6528350354        2.3025646777        5.6678158856
 H        -9.8217430471        3.0926195912        7.0110563276
 H        -9.7759304955        1.3339340079        6.8729263150
 H        -6.3662563426        2.4933393680        5.5665005318
 H        -7.1168120036        1.6214182989        7.0115143543
 H        -7.2582585042        3.3595103966        6.9767540742
 H        -9.1959921875       -3.5105325711        0.5362708308
 H        -8.9273981633       -3.0806398156        2.2416393246
 H        -7.6717628573       -3.6771831024        1.2694904891
 H        -6.4329379890       -1.6958114674        1.9946784869
 H        -6.4970337207       -0.1877102730        1.0120216647
 H        -5.9532161733       -1.6437606836        0.1887953549
 H       -12.9822266891        0.3688515412       -2.1288605227
 H       -11.4526461589       -0.4211150870       -1.3614844315
 H       -11.9189120788       -0.9198174399       -2.9413663493
 H       -11.8120318470        2.5012409239       -4.4220023175
 H       -11.8808908965        0.7369743170       -4.7195201669
 H       -10.3621080757        1.5240651493       -4.8892858443
 H       -14.1372832554        5.6300708081        1.2044155277
 H       -15.0901402598        4.1928936320        1.9745116340
 H       -15.8871751394        5.5233701176        1.2872200363
 H       -16.5344776680        2.7535108943       -0.8623391307
 H       -17.1394689183        4.5131867906       -0.6230295130
 H       -16.7423372125        3.4014061513        0.8031338829
 Na      -11.4896331754        5.6541849567       -1.9503684799
