117

 C       -14.8774744193        5.3563601935       -2.9505706138
 C       -14.6705099281        5.2684748732       -1.4512804370
 O       -13.6420025566        5.6487501826       -0.9431622503
 C       -15.6781683978        4.4496590642       -0.6163686172
 C       -15.2176985944        2.8294360651       -0.6242868033
 O       -15.8137620490        2.0985478973       -1.4350313444
 C       -14.1154083760        2.3572442652        0.2552161310
 C       -13.1604785136        1.2873779463       -0.3505366052
 C       -12.3497983101        1.8894198060       -1.6195514166
 O       -12.6273486856        2.9796631820       -2.1062868264
 C       -11.1137718799        1.0850937892       -2.1308838097
 C        -9.7660263683        1.6173829877       -1.4286497209
 O        -9.7142431956        2.7756122285       -1.0345820488
 C        -8.5213097020        0.7767347556       -1.6470364415
 C        -7.7770796592        0.1570558566       -0.3905338350
 C        -8.2504254927       -1.2171321755        0.1160888780
 O        -8.7079095893       -2.0084536439       -0.6901734710
 C        -7.9173484489       -1.6060145931        1.6087667903
 C        -8.7235426533       -0.5164908417        2.5185421149
 O        -9.4223601083        0.2864058789        1.9764826767
 C        -8.6185671647       -0.7328548733        4.0513332103
 C        -8.7563287055        0.6602954251        4.7596102522
 C        -7.4816590233        1.4771078040        4.5839472678
 O        -6.5503231775        0.9399644467        4.0210372796
 C        -7.2779941576        2.9193678632        5.1768262897
 C        -7.5566048330        3.6452005365        3.8641695376
 O        -8.6316522842        4.0454687464        3.4768205868
 C        -6.3330702730        4.0400446791        2.9818843523
 C        -6.8447309886        4.7154906482        1.7156142787
 C        -7.2251430007        6.1978496319        1.9969115934
 O        -6.8728574376        6.7357517944        3.0298375823
 C        -8.2440030326        6.9758340212        0.9997823600
 C        -8.8706872792        6.1263183621       -0.1089582291
 O       -10.1111146204        6.0401411232       -0.1216426717
 C        -8.1119616441        5.4973172024       -1.2355374637
 C        -8.1695615417        6.2245045015       -2.6563255079
 C        -9.3555751396        5.8578763141       -3.5775639647
 O        -9.8663574263        4.7612272873       -3.5583691336
 C        -9.7390459058        6.9651092013       -4.5633599656
 C       -10.8081994790        7.8141179065       -3.7946215630
 O       -11.5907299904        7.2578231603       -3.0590916184
 C       -11.0688278138        9.2339019391       -4.2318885417
 C        -8.5743704321        7.7512285539       -5.1822592781
 C       -10.6173166436        6.3373739792       -5.7416088647
 C        -9.4271854514        7.4303670641        1.9085686131
 C        -7.4749057309        8.2070146801        0.4368323184
 C        -8.2973082190        3.2996409989        6.3066136575
 C        -5.8191883654        2.9587920375        5.8152241017
 C        -8.3827309204       -2.9660019556        2.0326996896
 C        -6.3673821470       -1.3842828903        1.9970921412
 C       -11.3127142704       -0.4098263396       -1.8487403221
 C       -10.9085940649        1.3231766575       -3.7295823746
 C       -15.7708840125        4.8524848362        0.8988699768
 C       -17.0921989238        4.4973386030       -1.1878501257
 H       -13.9910024522        5.7131413857       -3.3938731981
 H       -15.7153720042        5.9896133462       -3.2311771927
 H       -15.0761208338        4.3253522219       -3.3026970184
 H       -14.5197499562        1.9617577693        1.1718771861
 H       -13.4895970480        3.1949579003        0.4533437438
 H       -13.7009056391        0.3933955725       -0.6919310496
 H       -12.4412343333        0.8507085058        0.4215509890
 H        -7.8112663485        1.4176170549       -2.2248866789
 H        -8.7766793425        0.0255552776       -2.4004781779
 H        -7.7104297818        0.9482311287        0.3525679972
 H        -6.7079464650       -0.0450327855       -0.6644984959
 H        -7.6386357012       -1.1131349990        4.3168200294
 H        -9.4670136634       -1.3340037188        4.4150458427
 H        -8.8917802052        0.4058036726        5.8319670777
 H        -9.5873809784        1.2365855751        4.3588725074
 H        -5.7667178816        3.1426083603        2.7077133506
 H        -5.7654489595        4.7106222254        3.6180940881
 H        -7.7365768970        4.2103125185        1.3418952862
 H        -6.1187612082        4.7586356491        0.8145463598
 H        -8.5030836602        4.4856149096       -1.3242347632
 H        -7.0945253577        5.4222729731       -0.9223858814
 H        -7.2490515317        5.9420837903       -3.1786742402
 H        -8.0881510118        7.2946637366       -2.5506852496
 H       -11.8442319170        9.6151403842       -3.6349551218
 H       -11.3735599975        9.1322528977       -5.2390415688
 H       -10.2251097091        9.8555397512       -4.1247504624
 H        -7.9253431391        7.0891373061       -5.7320746111
 H        -7.9234500213        8.0545326214       -4.3840151000
 H        -8.7861162031        8.6592834075       -5.7156967659
 H        -9.9841880464        5.5337706639       -6.2076918526
 H       -10.7613370003        7.1010733235       -6.4810589077
 H       -11.6016654761        5.9003519385       -5.4281413629
 H       -10.1407830385        6.6268806737        2.1771187618
 H        -9.8680763150        8.3339515210        1.4301989281
 H        -9.0204750238        7.8041080675        2.8452520065
 H        -8.1074092420        8.9698523150       -0.0504054687
 H        -6.8457021392        7.8188815546       -0.3237671001
 H        -6.9356992635        8.5870164794        1.2578583693
 H        -9.3294978250        3.4260590704        5.9615406716
 H        -8.1265272914        4.3731751602        6.6585557988
 H        -8.2439145539        2.6702036677        7.1597030883
 H        -5.2181622885        2.2218434710        5.2560427833
 H        -5.9037038632        2.7601412535        6.9089860331
 H        -5.3246090247        4.0086263826        5.7311497317
 H        -7.5527891411       -3.6539988066        2.1906838233
 H        -9.0545921496       -3.3230779629        1.2508810164
 H        -8.9344233657       -2.8959349022        2.8818563336
 H        -6.1315674839       -1.8011705708        3.0296416272
 H        -6.0840684632       -0.2971863650        2.0243252275
 H        -5.6637969906       -1.8308826167        1.3324825073
 H       -12.1581137469       -0.9104619119       -2.4031995706
 H       -11.3624118238       -0.8076527720       -0.8348328284
 H       -10.4065990960       -1.0092486928       -2.1293231299
 H       -10.9762321472        2.3618106168       -3.9852566758
 H       -11.6876990519        0.7442837202       -4.2598914564
 H        -9.9177412245        0.9606134372       -4.0001478660
 H       -14.7895550792        4.7086933949        1.3086852934
 H       -16.4811126792        4.3160624133        1.4394037726
 H       -15.9108484531        5.9113448984        1.1202384631
 H       -17.2064682056        4.0877079415       -2.1994946983
 H       -17.4876853908        5.5441072566       -1.2478727742
 H       -17.6860100127        3.8096429162       -0.5733673954
 Na      -11.4723625546        5.0296817708       -1.7873016706
