117

 C       -14.3200063396        5.2869160935       -2.7811101139
 C       -14.3040778274        5.0235661354       -1.3020536186
 O       -13.3773958955        5.1867686431       -0.5685614847
 C       -15.6727645615        4.4401053038       -0.7227594427
 C       -15.5329851307        2.7526807077       -1.0583998623
 O       -15.9443922196        2.3089353784       -2.0699445870
 C       -14.6946530706        1.9762556907       -0.1295506785
 C       -13.7705288241        1.0309997184       -0.8873558660
 C       -12.5744281321        1.7761043668       -1.5270224732
 O       -12.6143451197        2.9278652966       -1.9107919473
 C       -11.2322001671        0.9330285810       -1.7615037339
 C       -10.0064087209        1.7822591287       -1.1578002169
 O       -10.1303879493        2.9554658042       -0.9754402947
 C        -8.6333446550        1.1962363601       -1.0004043161
 C        -8.5065709310        0.7421385320        0.4409575552
 C        -7.9754366971       -0.7236003924        0.5118911928
 O        -7.6243277666       -1.3034452116       -0.4615893211
 C        -7.9423958514       -1.4212967083        1.9779329571
 C        -8.4328721699       -0.5377857159        3.1574106786
 O        -9.4634855840        0.1232755043        2.9214288572
 C        -7.8979432060       -0.5925097225        4.5664943941
 C        -8.1491065804        0.8503085620        5.1138048534
 C        -7.0196586186        1.7609963221        4.6237906545
 O        -6.2027221475        1.3006889711        3.8328009385
 C        -6.8925270412        3.1919351492        5.1951242199
 C        -7.7951015973        3.9767437465        4.1918145791
 O        -8.8545145833        4.4901272523        4.4966060812
 C        -7.0999233449        4.2046473712        2.8423793481
 C        -7.8695095935        4.9284886669        1.7931936839
 C        -7.0976711508        6.1949997386        1.3835599481
 O        -5.9553333389        6.3936093616        1.7490315881
 C        -7.9598562233        7.3095500566        0.7005060781
 C        -8.5601190764        6.7083406189       -0.6036811087
 O        -9.7736796744        6.4085892736       -0.6563980697
 C        -7.6785589068        6.4132174501       -1.8718742454
 C        -8.3722459855        6.7158447265       -3.2063915712
 C        -9.3492286285        5.6461433495       -3.7268978634
 O        -9.3347211635        4.5123797378       -3.2804603693
 C       -10.3664078296        6.0794046445       -4.8609333781
 C       -11.4671813035        6.8796277128       -4.2077812686
 O       -11.6451879886        6.9148438441       -2.9839483456
 C       -12.4416424846        7.6681967148       -5.0435731681
 C        -9.5959337843        7.0655027554       -5.8794274401
 C       -10.9913442959        4.8882846991       -5.5572620950
 C        -9.0595529148        7.7303075849        1.6445616866
 C        -7.0476693231        8.5230873221        0.3388634014
 C        -7.5901486696        3.3347434192        6.5735771131
 C        -5.4391398157        3.5735337131        5.3454636232
 C        -8.9006269055       -2.6143713868        1.9163517677
 C        -6.4733744484       -1.7929308280        2.1706347191
 C       -11.2370933330       -0.5541415461       -1.2609821716
 C       -11.0418045989        0.9419489032       -3.3563929277
 C       -15.6990347038        4.7814960447        0.7982592211
 C       -16.9619884608        4.8493672708       -1.3968892212
 H       -13.7488990184        4.5221932988       -3.3056470218
 H       -13.7485688508        6.2309500525       -2.9745941273
 H       -15.2682626115        5.3676644897       -3.2010864180
 H       -15.3308689815        1.3679141918        0.5730683149
 H       -14.2110467511        2.6501168896        0.6125631263
 H       -14.3256413955        0.6539111809       -1.7354533232
 H       -13.4377521060        0.2106797757       -0.2656296089
 H        -7.8294374807        1.9538225202       -1.1258134758
 H        -8.4502362755        0.2759970072       -1.6564454051
 H        -9.4526093453        0.8582857135        0.8885570000
 H        -7.8417092921        1.3453618949        1.0393903546
 H        -6.9178328067       -0.9834210450        4.7407060601
 H        -8.4932072765       -1.3071921621        5.1103875898
 H        -8.3648668379        0.8968019603        6.1874498493
 H        -9.0579328955        1.1943058325        4.7302757137
 H        -6.8245439146        3.2653321071        2.4235933402
 H        -6.0795219785        4.6778382452        3.0312054873
 H        -8.8843608678        5.1963375175        2.1117486950
 H        -7.8803545258        4.2377230050        0.9538506660
 H        -7.3779829502        5.3494191735       -1.9818971712
 H        -6.7973234916        7.0028645559       -1.8280436981
 H        -7.4972366625        6.8041422532       -3.9113493707
 H        -8.7830157870        7.7254485265       -3.1375888701
 H       -13.3024684158        7.8922402368       -4.4896771403
 H       -12.7317977180        7.1016087488       -5.9183962219
 H       -11.9103810243        8.4904918799       -5.3809293919
 H        -8.7719310165        6.5500592060       -6.3739757324
 H        -9.2315528753        8.0059950783       -5.4775637590
 H       -10.2401715056        7.3542494069       -6.7113881805
 H       -10.2093858333        4.1304420237       -5.7279980719
 H       -11.4152081554        5.1296679400       -6.4980779778
 H       -11.8075568002        4.5144942738       -4.8685481442
 H        -9.7678961875        6.9616652757        1.9705179472
 H        -9.6132400797        8.4748920002        1.2470807695
 H        -8.4841340805        8.0793419827        2.4910681828
 H        -7.5967281132        9.1832145518       -0.3172964731
 H        -6.1587221061        8.2015624572       -0.1964776324
 H        -6.7067537449        9.0998975665        1.1974799429
 H        -8.5729000793        2.8888203165        6.4885751052
 H        -7.5817699300        4.4418394671        6.8148521821
 H        -7.0712977531        2.8159106079        7.3594859269
 H        -4.8854968446        3.2010644793        4.4598023877
 H        -5.0338723701        3.1639367521        6.2628469492
 H        -5.3077539830        4.6669864067        5.5034052301
 H        -8.4750293790       -3.4273490615        2.4833729141
 H        -8.9720611085       -3.0145831504        0.9131262323
 H        -9.8818015978       -2.4038041313        2.2402791109
 H        -6.3379331399       -2.5746603108        2.9685136336
 H        -5.8217875628       -0.9617556200        2.4636288999
 H        -6.0976988586       -2.3125840105        1.3316686201
 H       -11.9022581459       -1.1096773282       -1.9492818605
 H       -11.5404536617       -0.7146553624       -0.2036655963
 H       -10.2248500839       -0.9484360234       -1.3303328174
 H       -10.6879588471        1.8676135462       -3.7505128779
 H       -12.0020623734        0.7281241786       -3.8373620855
 H       -10.3663391326        0.1188158478       -3.5901803813
 H       -14.7016387530        4.5616093549        1.1911257628
 H       -16.3452016743        4.2517405951        1.3996943296
 H       -15.8631265214        5.8530918175        0.9581895501
 H       -17.1723142270        4.2943199400       -2.3041388960
 H       -16.9862236494        5.9064509912       -1.7848335171
 H       -17.8827704201        4.8410373840       -0.8180690779
 Na      -11.3192068751        4.9007611186       -1.5038952015
