117

 C       -14.6641922537        5.3638549053       -2.8972760630
 C       -14.6376694144        5.1207571385       -1.3791056821
 O       -13.5579071166        5.2691228727       -0.8503439025
 C       -15.8007881165        4.3626540678       -0.5862464375
 C       -15.2663571738        2.9324255360       -0.8570510700
 O       -15.7221617392        2.2574082307       -1.8029913852
 C       -14.2006644942        2.3177053122        0.0066001492
 C       -13.4741465187        1.1398984208       -0.6565803565
 C       -12.3822339403        1.6925341286       -1.5632438272
 O       -12.5126374224        2.8668970526       -2.0380705701
 C       -11.0566442270        0.9309868019       -1.8742680795
 C        -9.8002220058        1.7524475341       -1.3074656859
 O        -9.8893341967        2.8731584812       -0.8102524855
 C        -8.3919802701        1.0883516438       -1.4192030807
 C        -7.8716987623        0.4055716066       -0.1118149457
 C        -8.3335843016       -0.9955084775        0.2481763494
 O        -8.8062660407       -1.7188422303       -0.6217406794
 C        -7.9641268467       -1.4772884314        1.6912927691
 C        -8.6829250560       -0.4663886188        2.6926180549
 O        -9.4394098016        0.3486399131        2.2798310226
 C        -8.6550511243       -0.6781392052        4.2181994033
 C        -8.5977821086        0.6580510909        5.0001130905
 C        -7.2793610762        1.4371231338        4.7165424512
 O        -6.4439256431        1.0208389171        3.9346762446
 C        -7.1379973613        2.9195154882        5.1665148447
 C        -7.6281852317        3.7141663143        3.8544115304
 O        -8.8222408489        3.8710695988        3.6883483418
 C        -6.4708421649        3.9528562179        2.8665260575
 C        -6.8795796377        4.6602196814        1.5040523751
 C        -7.1740005534        6.2241544823        1.8836890799
 O        -6.5938114912        6.7570449527        2.8193898036
 C        -8.1962655352        7.0892222033        0.9745680630
 C        -8.8543441262        6.3041389446       -0.2402398841
 O       -10.0643127309        6.1530752662       -0.1905691767
 C        -7.9931425508        5.7574759453       -1.3692764092
 C        -8.3307957667        6.5379094297       -2.6936172841
 C        -9.3370194347        5.8537526659       -3.5926087188
 O        -9.5912837499        4.6851247028       -3.4935800563
 C       -10.0249171746        6.6734909438       -4.7374445317
 C       -11.0921319877        7.5919854459       -3.9415131491
 O       -11.6318369947        7.0557628672       -3.0004242668
 C       -11.4089995412        9.0690127972       -4.4265361450
 C        -8.9901983864        7.6002755636       -5.4733558534
 C       -10.6492286970        5.7712058525       -5.8042225780
 C        -9.2787019846        7.6677395271        1.8631402227
 C        -7.2979372013        8.2073027303        0.2826829519
 C        -8.0810174604        3.2603533976        6.2908989797
 C        -5.6468997632        3.3212901990        5.5621527649
 C        -8.5266415452       -2.8581581643        1.8724507272
 C        -6.4779840247       -1.3840696744        1.8470602538
 C       -11.1629091910       -0.4440020566       -1.3332279437
 C       -10.8355004808        1.0244484879       -3.4833186762
 C       -15.6322117978        4.8395269726        0.8721070833
 C       -17.2032877610        4.6276979795       -1.1661876892
 H       -14.0588940309        6.2004809982       -3.1529014759
 H       -15.6164123661        5.5131870957       -3.3684637753
 H       -14.1598713783        4.3819509215       -3.2882549447
 H       -14.6398799996        1.9763415383        0.9811762999
 H       -13.4451958608        3.0854142099        0.3054770848
 H       -14.1794779559        0.6134931376       -1.3224444485
 H       -13.0770944273        0.3790562462        0.0036529357
 H        -7.7721537188        1.8761018391       -1.7187839956
 H        -8.4537213701        0.3183984616       -2.2379720867
 H        -8.0762603814        1.0978376768        0.7078637273
 H        -6.7526086815        0.2822158230       -0.2125638366
 H        -7.7305807867       -1.2590860586        4.5042807162
 H        -9.5776715689       -1.1824043159        4.5045418909
 H        -8.6347805428        0.4488152062        6.1369785444
 H        -9.4296689292        1.2798076337        4.7411885511
 H        -6.0841073769        2.9792928673        2.7035833272
 H        -5.7444229889        4.6888978889        3.3608398752
 H        -7.8324893073        4.3318331987        1.0740281640
 H        -6.0248694040        4.6039767583        0.8502174586
 H        -8.3514622313        4.6857444236       -1.6027463024
 H        -6.9545058964        5.8252154187       -1.0738937203
 H        -7.3937378682        6.7749894470       -3.2328327962
 H        -8.7341976208        7.5152493444       -2.4359411777
 H       -11.8825017082        9.6415297799       -3.5732651076
 H       -12.0122615841        8.9597999226       -5.3526787921
 H       -10.4316790550        9.6179703976       -4.6721544801
 H        -7.9974355750        7.1716673704       -5.7374038135
 H        -8.7665613129        8.5180003301       -4.9708167195
 H        -9.4438725040        7.9442696257       -6.4393397536
 H       -10.1452868462        4.7948673229       -5.8282162059
 H       -10.5898450903        6.3591617032       -6.7052093599
 H       -11.6861728512        5.5465734000       -5.6372819074
 H        -9.5293574694        6.9419910803        2.6203817570
 H       -10.1516257784        7.9209178171        1.1754355670
 H        -9.0156752621        8.6299769784        2.2671694705
 H        -7.9866351893        8.8746657395       -0.3676006871
 H        -6.5125626383        7.7735028813       -0.3401014234
 H        -6.8958680593        8.7875911171        1.0808470359
 H        -9.1362304970        3.3249076419        6.0210571357
 H        -7.8930794204        4.2290979863        6.7907419831
 H        -7.9118004695        2.5191253135        7.0266281253
 H        -4.9853176833        3.2155362376        4.7687954566
 H        -5.3106949341        2.6112439369        6.2990589157
 H        -5.6304200301        4.3838481108        5.8324485238
 H        -7.9761482291       -3.2552089623        2.7838227164
 H        -8.1767740251       -3.4620941529        0.9822644503
 H        -9.5760546305       -2.9472295933        2.0640577331
 H        -6.2556501140       -1.4517771116        2.9097362663
 H        -6.0889546472       -0.4176999920        1.4865883399
 H        -5.8943073607       -2.0277201754        1.2636392194
 H       -12.1538450851       -0.8459124771       -1.5845985490
 H       -11.0969233023       -0.5451172638       -0.2875084273
 H       -10.5247361810       -1.1728580428       -1.8463031726
 H       -10.2464671527        1.8978906935       -3.7047363509
 H       -11.8571991006        1.0223140340       -3.9424909018
 H       -10.3211607875        0.1766772967       -3.8679783031
 H       -14.6079984616        4.7612545122        1.2398936779
 H       -16.2616309996        4.2423218456        1.5780356104
 H       -15.9941943667        5.8870732358        1.0674904278
 H       -17.3814970280        4.2938831270       -2.1827106775
 H       -17.3403035871        5.7147697250       -1.2474241674
 H       -18.0430280654        4.2073646376       -0.5955212653
 Na      -11.3546343128        4.8668144799       -1.6963695478
