117

 C       -14.9799877404        5.3528764857       -2.7471760237
 C       -14.7359756998        5.0830688460       -1.3172998038
 O       -13.6565926675        5.3232942411       -0.7433324542
 C       -15.8734437958        4.3861814715       -0.5324328139
 C       -15.4889153139        2.7969689329       -0.9827028104
 O       -15.9017474085        2.2428044455       -1.9270494028
 C       -14.5239227675        2.0472202964        0.0087818727
 C       -13.6108976248        1.0691803110       -0.7997135033
 C       -12.4636951218        1.7964851461       -1.6311846739
 O       -12.7484923518        2.9088939083       -2.0553086108
 C       -11.0761090908        1.1118871189       -1.7889538671
 C        -9.9917581260        1.8740386452       -0.9551503211
 O       -10.1366905420        3.0373686718       -0.7664268310
 C        -8.6225750502        1.1769677503       -0.5315865066
 C        -8.6998055491        0.5523515950        0.9118797005
 C        -7.9733040184       -0.8200508541        0.9374057345
 O        -7.6420695870       -1.3289816079       -0.0833575892
 C        -7.8407671665       -1.6900390592        2.3710312123
 C        -8.2925305653       -0.8642330580        3.5702224389
 O        -9.4168178747       -0.3975170599        3.6177492523
 C        -7.3435856678       -0.6777932627        4.8136785416
 C        -7.7141485682        0.7175104170        5.4285437570
 C        -6.8948933461        1.7765720429        4.7035005785
 O        -6.2088033401        1.5142442207        3.7373129794
 C        -6.8198968910        3.1950108156        5.3445648380
 C        -7.5540289736        4.2943966023        4.4474953664
 O        -8.5663547253        4.8413796066        4.8433539809
 C        -6.9371685719        4.7287551205        3.0296210876
 C        -7.6961296183        5.8861821000        2.4468230831
 C        -7.2113296998        6.2471285794        1.0539031811
 O        -6.4628593925        5.5803188672        0.3439056166
 C        -7.9516871682        7.5996883252        0.3874403814
 C        -8.7095111676        7.0136155490       -0.9611504190
 O        -9.8677803607        6.6673082095       -0.8962733378
 C        -7.8030563591        6.8524458112       -2.1947923912
 C        -8.5231906783        6.8191966380       -3.5813717204
 C        -9.4557733127        5.6830342405       -3.8013336972
 O        -9.5387593848        4.7186017532       -3.0608090395
 C       -10.3656353498        5.7857262345       -5.0533562218
 C       -11.5360655794        6.6830987375       -4.7133454894
 O       -12.0485637888        6.6430552076       -3.5900706190
 C       -12.2120525037        7.5535249732       -5.7850684807
 C        -9.5412456887        6.3298706977       -6.2487302610
 C       -10.9167426268        4.4433473369       -5.4716303715
 C        -8.9830999482        8.3010920597        1.2863276777
 C        -6.8737741136        8.5674636121       -0.0286842865
 C        -7.4091315053        3.2085502335        6.7370589098
 C        -5.3641650116        3.5286010204        5.2968500735
 C        -8.8297462876       -2.8277374037        2.2540837533
 C        -6.3159549954       -2.2045633944        2.4000062414
 C       -11.1299421886       -0.4226066712       -1.5458944804
 C       -10.5773256139        1.2884134042       -3.2957388031
 C       -15.8284044672        4.6037836582        1.0086242817
 C       -17.2894627536        4.5810006409       -1.1093361549
 H       -15.3308363164        4.5268601487       -3.3670245600
 H       -13.9981694904        5.6542507099       -3.1209685051
 H       -15.5754251181        6.3002991714       -2.8983646356
 H       -15.1900867700        1.3754175443        0.5976704815
 H       -13.9126319654        2.7477463326        0.6217464128
 H       -14.3041757814        0.6144359634       -1.5105340566
 H       -13.1458089141        0.3662449447       -0.1583746885
 H        -7.8609842652        1.9214286177       -0.5722469100
 H        -8.1947317177        0.5086018707       -1.2958718095
 H        -9.7126495272        0.5162471470        1.3117691985
 H        -8.2562807709        1.2579380794        1.5863400972
 H        -6.2391210943       -0.6620498520        4.6312501802
 H        -7.5559117168       -1.4922802102        5.4740295314
 H        -7.5386795839        0.7988521347        6.4834448365
 H        -8.7874065255        0.8791796335        5.1826268734
 H        -6.8725498108        3.8673176988        2.2998619210
 H        -5.8829658315        4.9139214235        3.1590854890
 H        -7.6840966581        6.7651267990        3.0593050907
 H        -8.7277870321        5.6466473742        2.3861145188
 H        -7.0740914523        6.0020244707       -2.1876535613
 H        -7.0838787879        7.7172794602       -2.2223203558
 H        -7.7018454831        6.9359727911       -4.3053698229
 H        -9.1456639541        7.7392177726       -3.7923363857
 H       -13.0964075499        8.0717985801       -5.4510327808
 H       -12.4788864295        6.9228970621       -6.6069418873
 H       -11.4965690790        8.3394381799       -6.0733065679
 H        -8.6237366954        5.7310754328       -6.2672653493
 H        -9.1658869777        7.3085882964       -6.0773771453
 H       -10.0300972015        6.2786104582       -7.2319386494
 H       -10.0458632587        3.7891939249       -5.5138546541
 H       -11.3291586548        4.5327068047       -6.4671738030
 H       -11.5981431587        4.0698743675       -4.7445690682
 H        -9.7250348431        7.5579070171        1.4751556909
 H        -9.3982912523        9.1203690423        0.7322472756
 H        -8.6496323958        8.6811256658        2.1953062586
 H        -7.2274025469        9.4624510621       -0.6361435753
 H        -6.0868299707        8.1424529894       -0.6332839005
 H        -6.4411634181        9.0010704069        0.8379440621
 H        -8.3437003734        2.6490727683        6.8184141845
 H        -7.7565666010        4.1988631860        6.9546623277
 H        -6.6295985536        2.8530892666        7.3901011035
 H        -5.0219918150        3.2817192879        4.3326774596
 H        -4.7649730306        2.9631246131        5.9840865923
 H        -5.1831674571        4.6033798517        5.4196899208
 H        -8.5367029202       -3.6114515512        2.9309217056
 H        -8.8291444171       -3.2060210437        1.2276484047
 H        -9.8361448218       -2.6038468148        2.4460137984
 H        -6.0734487902       -2.9106479597        3.1727218464
 H        -5.5987211001       -1.3525039392        2.5481793773
 H        -6.0650501791       -2.6100155558        1.4138839714
 H       -11.6474196350       -0.8480005136       -2.3861251291
 H       -11.5940142766       -0.6484289911       -0.6358661382
 H       -10.0957111888       -0.7596302566       -1.5454669793
 H       -10.2991224789        2.3473176650       -3.3753953603
 H       -11.4451922615        1.1835794347       -3.9865538095
 H        -9.7691050126        0.6677196834       -3.6018441474
 H       -14.8767955048        4.4540727867        1.4253383149
 H       -16.5401293511        3.8710502837        1.4156154314
 H       -16.1895804215        5.5650493638        1.3142070526
 H       -17.3737859575        4.1856932243       -2.1181240859
 H       -17.6478615355        5.5495478570       -1.2959581922
 H       -18.0515476677        4.0152313661       -0.5757571760
 Na      -11.5313478495        4.9200406892       -1.7830509076
