117

 C       -14.3629636182        5.2668896261       -2.7896394888
 C       -14.4239730245        5.0043677610       -1.3259272575
 O       -13.4177552318        5.2061035299       -0.6203251339
 C       -15.6944190034        4.3469313170       -0.7096028661
 C       -15.5107202339        2.8341740935       -1.0190483801
 O       -15.9924816448        2.3853782609       -2.0470241598
 C       -14.6652690625        1.9408770152       -0.0742998180
 C       -13.7421220948        1.0445048505       -0.8732823151
 C       -12.5350501024        1.7436076626       -1.5076469566
 O       -12.6008075634        2.8665960775       -1.9196121308
 C       -11.2060176102        0.9755022316       -1.8367898368
 C        -9.9802652617        1.8420621310       -1.2400678239
 O       -10.1541579268        3.0401139818       -0.9155626204
 C        -8.6724882564        1.2044673152       -0.9552564217
 C        -8.5121894501        0.6936001978        0.4721862637
 C        -7.9395612873       -0.7428593292        0.6689109782
 O        -7.6199935931       -1.3331901588       -0.3583678366
 C        -7.8651485174       -1.4848493186        2.0152839249
 C        -8.5373521337       -0.5812534271        3.1992146575
 O        -9.5530973391        0.0966078332        3.0136101574
 C        -7.8819757135       -0.5762806944        4.5172911300
 C        -8.0467721670        0.8206959780        5.1447823761
 C        -6.9100031428        1.7593867043        4.6886043242
 O        -6.2212862413        1.5331414141        3.7046310752
 C        -6.8881913760        3.1880988387        5.3106100474
 C        -7.6492584800        4.0862768919        4.2766708444
 O        -8.7748664738        4.4886105706        4.5068455105
 C        -7.0336748429        4.1662713161        2.8490893323
 C        -7.9600175274        4.9029211004        1.8329081961
 C        -7.1520180867        6.2103385859        1.4002491261
 O        -5.9482268135        6.1968613937        1.5031570458
 C        -7.9409057022        7.3574811627        0.6148409817
 C        -8.5959844412        6.7435403082       -0.6742516196
 O        -9.7803618589        6.4723291842       -0.6494058851
 C        -7.7055273687        6.4531932532       -1.9218719202
 C        -8.3267531680        6.7560089387       -3.3180751293
 C        -9.3425227223        5.7304501634       -3.7207965586
 O        -9.3897401130        4.6092398995       -3.2314171065
 C       -10.3518297872        6.0699447756       -4.8945742974
 C       -11.5217408577        6.9400463843       -4.2233727153
 O       -11.7074293002        6.8864554977       -3.0305013238
 C       -12.5309276729        7.5931667635       -5.2407298307
 C        -9.5912458258        6.9015172388       -5.9048068437
 C       -10.9662013926        4.7495639499       -5.4776853752
 C        -9.1453474414        7.8204513987        1.4878174463
 C        -7.0413235132        8.5014418142        0.2679262953
 C        -7.5780790239        3.3179621046        6.7483453225
 C        -5.4162626087        3.6541768850        5.3759683743
 C        -8.8171870625       -2.7432933007        1.8991918457
 C        -6.4255913902       -1.8943019561        2.2451682463
 C       -11.3382786340       -0.4841239034       -1.3296182420
 C       -10.9969309556        0.9349836366       -3.3182265336
 C       -15.7787476655        4.6459824659        0.8206089610
 C       -16.9636925337        4.8471642661       -1.3894484270
 H       -13.8454355709        4.3924833088       -3.2620920084
 H       -13.6762200673        6.1179798840       -2.9955107309
 H       -15.2736138210        5.4565920530       -3.3181662591
 H       -15.2958452848        1.2503202898        0.5854966561
 H       -14.1519251967        2.5441029076        0.7085781458
 H       -14.2532458076        0.5994756755       -1.6825652193
 H       -13.3694266843        0.2927690989       -0.1668666989
 H        -7.7776335241        1.9091002521       -1.0563143528
 H        -8.4828896785        0.3281179106       -1.5680849878
 H        -9.4819998644        0.7196904713        0.9479590945
 H        -7.9272944115        1.3598594494        1.0805704379
 H        -6.8671445011       -0.8126860098        4.4957589472
 H        -8.2490011020       -1.3916400283        5.1641665580
 H        -8.0253162799        0.7307218857        6.2098118052
 H        -9.0406045346        1.2887292252        4.9994582831
 H        -6.5722370506        3.1897234319        2.5270948550
 H        -6.1152595568        4.7420888832        2.9980159500
 H        -8.8292057951        5.1810633053        2.3264231296
 H        -8.1831373635        4.2747329051        0.9656649250
 H        -7.4836264753        5.3554862131       -1.8879416677
 H        -6.7105043009        6.9872012962       -1.8062738563
 H        -7.5158597102        6.7597722735       -4.0950065891
 H        -8.6617223184        7.8171035747       -3.2447803255
 H       -13.4528809152        7.9517157056       -4.7709610026
 H       -12.8268426923        6.8553549723       -5.9855500025
 H       -11.9646781805        8.3488971666       -5.7729730405
 H        -8.9761812586        6.2972732538       -6.5388677046
 H        -8.9803591221        7.7646686622       -5.5663762536
 H       -10.3063220611        7.3523556852       -6.5611564867
 H       -10.2493939760        4.0200171442       -5.6886851875
 H       -11.4928162149        4.9401548175       -6.4008717277
 H       -11.6768340817        4.4670042002       -4.7332090129
 H        -9.6656309298        7.0096209678        1.8772984882
 H        -9.8602054548        8.3930496661        0.9171361854
 H        -8.7384196694        8.3713510339        2.2989356993
 H        -7.3920131647        9.2049517164       -0.4385574305
 H        -6.0261180814        8.1443795656       -0.0588685179
 H        -6.8461028492        9.0148421192        1.2632994278
 H        -8.6367455925        3.1403372712        6.6767696667
 H        -7.3462147932        4.3078996869        7.0655700220
 H        -7.1566751298        2.5791444841        7.4640707215
 H        -4.8935554405        3.4512438594        4.4582241182
 H        -4.8975198824        3.3013406105        6.2163493497
 H        -5.4563010218        4.6610368828        5.5593548517
 H        -8.7658367434       -3.3003768979        2.8076790148
 H        -8.7419063342       -3.4373190854        1.1087217267
 H        -9.8391623472       -2.2476248672        1.8300112146
 H        -6.4134086973       -2.6884499749        2.9806459256
 H        -5.7314626498       -1.1916060847        2.5918870899
 H        -6.0664167679       -2.4683807797        1.3707611958
 H       -11.9688240652       -0.9656232341       -2.0139383394
 H       -11.7045044880       -0.5541471911       -0.3216895107
 H       -10.3939687914       -0.9309429792       -1.2951968231
 H       -10.8695318734        1.9095982467       -3.8154084747
 H       -11.8211681085        0.4622689664       -3.7919757964
 H       -10.1107720859        0.2531630917       -3.4313092501
 H       -14.8134473745        4.5069978793        1.3117332028
 H       -16.4921743757        4.0468145699        1.3717877426
 H       -16.0129073629        5.6680754374        0.9514020783
 H       -17.2853802869        4.4056123270       -2.3026689171
 H       -16.7485926296        5.8615767978       -1.7084816089
 H       -17.8580768222        4.9701636809       -0.8327156104
 Na      -11.2088526261        5.0196042487       -1.4859910917
