117

 C       -15.3227831376        5.7011874436       -2.7949215399
 C       -14.8956097822        5.0881589005       -1.3316981180
 O       -13.7284847687        5.1745843234       -0.9160052145
 C       -15.8543061901        4.1913433850       -0.4868156955
 C       -15.3571415670        2.7710800090       -0.8917614872
 O       -15.7783597308        2.0921003075       -1.7688293221
 C       -14.2719422527        2.1442707367        0.0441090136
 C       -13.4190313951        1.0742727396       -0.6964426063
 C       -12.4063940850        1.8122286783       -1.5645238326
 O       -12.6595372289        2.8411831735       -2.1223623246
 C       -10.9694889489        1.1749260949       -1.7095521899
 C       -10.0567853347        2.0013322352       -0.6571185751
 O       -10.3447845080        3.1639625949       -0.4399521762
 C        -8.8302579192        1.2596311727       -0.0243352772
 C        -9.0846383091        0.3864162032        1.1214838708
 C        -8.1580917502       -0.8438985997        1.0558867239
 O        -7.6613976156       -1.2206787246        0.0340023222
 C        -7.8856190369       -1.7971303714        2.3824679117
 C        -8.3304561365       -0.9164670689        3.7210580461
 O        -9.3908077257       -0.3778173536        3.7939314117
 C        -7.1942348357       -0.7533467380        4.8150974057
 C        -7.2039027567        0.7549867488        5.5091956786
 C        -6.8459314290        1.9528680128        4.5862382044
 O        -6.7861011733        1.8831296951        3.3857941086
 C        -6.6263329100        3.3624082493        5.3335935966
 C        -7.3753650841        4.3776796300        4.4174626843
 O        -8.4832248510        4.7911657887        4.7282673196
 C        -6.7985018122        4.8668308698        3.0150463138
 C        -7.3236457677        6.2264502746        2.5634864894
 C        -7.4620056449        6.2979331881        1.0392863756
 O        -7.1722153011        5.2869237461        0.4089144754
 C        -8.0352885086        7.6102110575        0.2758711687
 C        -8.7628442299        7.0447710828       -0.9760913226
 O        -9.9297316658        6.7758076581       -0.9893870335
 C        -7.9048180691        6.8251351368       -2.3933952340
 C        -8.6964822833        6.9175743982       -3.6925692326
 C        -9.3897368647        5.5767389535       -3.9986168620
 O        -9.3618692024        4.5396654458       -3.3285932055
 C       -10.3461893230        5.5796019390       -5.3466026346
 C       -11.5791707265        6.4734707738       -4.9245456425
 O       -12.1771896313        6.1973828318       -3.8853054522
 C       -11.9015015253        7.6607488143       -5.8271497226
 C        -9.5991936796        6.0862820339       -6.5994452460
 C       -10.8838076851        4.1519622522       -5.6205659630
 C        -9.0863312863        8.3966048723        1.1114453603
 C        -6.7752862326        8.3843825301        0.0743529714
 C        -7.2963394295        3.5130602445        6.7111522819
 C        -5.1432661623        3.5960820868        5.4174973246
 C        -8.7660503001       -2.9997925859        2.2854998809
 C        -6.4042525078       -2.1656559089        2.3024485870
 C       -10.9630702428       -0.4141751144       -1.4775495343
 C       -10.5042051470        1.5786285668       -3.1464829688
 C       -15.6378211782        4.5751273367        1.0149895887
 C       -17.3253668017        4.3270334657       -0.9141546650
 H       -15.6917224894        4.8665798080       -3.3336479791
 H       -14.5879961197        6.1598352232       -3.3479159792
 H       -16.1614559836        6.4561857524       -2.7231345586
 H       -14.8972688629        1.5922966116        0.7659118906
 H       -13.6070469103        2.9169621066        0.4118581728
 H       -13.9554609358        0.4813343886       -1.4269196861
 H       -12.8738322085        0.4111314504        0.0275049595
 H        -8.0449996900        2.0628315509        0.2172857396
 H        -8.2862576552        0.7511411563       -0.8575825211
 H       -10.1411903482        0.0748111008        1.1517854691
 H        -9.0059907043        0.9685324948        2.0246749828
 H        -6.1998199550       -0.9661326037        4.4975215445
 H        -7.4412334324       -1.3587853812        5.6937179653
 H        -6.4176426448        0.6787728485        6.2137233882
 H        -8.1975737177        0.9534644266        5.9831470090
 H        -7.1131657381        4.0945865303        2.2358382910
 H        -5.7281291796        4.9002612708        2.9494820256
 H        -6.7981410748        7.0544742334        3.0288283634
 H        -8.4061832733        6.4539581356        2.9208394838
 H        -7.3878723970        5.9320755943       -2.3883896991
 H        -7.0965742477        7.5699953162       -2.4558968754
 H        -8.0352741613        7.1922519362       -4.5164050927
 H        -9.3732339639        7.7740167537       -3.6102562672
 H       -12.8195962167        8.0844262551       -5.4428507742
 H       -12.0022970680        7.4173319071       -6.8450540955
 H       -11.1936911135        8.4769581709       -5.5475435537
 H        -8.6673225057        5.5449827167       -6.7929869522
 H        -9.3329329258        7.1434361098       -6.4382160273
 H       -10.2149618414        5.9621886107       -7.4956443461
 H       -10.0393696559        3.4545416956       -5.7744039211
 H       -11.6810371024        4.1999802125       -6.4411449185
 H       -11.3263387675        3.8312814020       -4.6922363750
 H        -9.7516526151        7.6003870673        1.4617098795
 H        -9.6363147179        9.2555163740        0.5420386211
 H        -8.6985394508        8.8763936492        2.0070433417
 H        -6.9429090239        9.3368610728       -0.4163743056
 H        -5.9757857764        7.9052959522       -0.4741510867
 H        -6.4122503561        8.6743339578        1.0524250976
 H        -8.3315938766        3.8332016613        6.5039388297
 H        -6.7944862017        4.2776819243        7.2535301318
 H        -7.2091923684        2.5750712795        7.3343245259
 H        -4.6799177062        3.4808040557        4.4421442366
 H        -4.6393074186        2.7748806748        5.9948385499
 H        -4.9072715242        4.6616657777        5.7195188235
 H        -8.4514754589       -3.7887373183        2.9838546156
 H        -8.7338273284       -3.4607255891        1.2785694449
 H        -9.8308076407       -2.8127539328        2.5753045514
 H        -6.0082449706       -2.7738772128        3.0785277675
 H        -5.7909964821       -1.2791173029        2.1266720860
 H        -6.2954192002       -2.6539821286        1.3002707030
 H       -11.9146277052       -0.8393966349       -1.8815357101
 H       -10.8410164652       -0.6781094761       -0.4270232874
 H       -10.1924253691       -0.7968449819       -2.2030847690
 H       -10.4004254134        2.6764189197       -3.2120223655
 H       -11.1688227264        1.2325462725       -3.9125567965
 H        -9.5236667072        1.1574663586       -3.3683670261
 H       -14.5774671936        4.6547365837        1.2387404361
 H       -16.1817967306        3.8414760471        1.7236326441
 H       -16.1454859412        5.5214855492        1.1728797915
 H       -17.5297558456        3.9429881434       -1.9344789759
 H       -17.6777221506        5.3476149079       -1.0219180759
 H       -18.0842729915        3.8691075446       -0.2346922179
 Na      -11.4577969816        5.0404576187       -1.7212500001
