117

 C       -14.5056405221        5.2065217831       -2.7652468751
 C       -14.5070470719        5.1061518390       -1.2133528079
 O       -13.4421459561        5.2538693499       -0.6958397003
 C       -15.8081150409        4.3463855617       -0.6338979497
 C       -15.5675170517        2.7808732425       -1.0755866561
 O       -16.0289540300        2.3337851408       -2.0525308394
 C       -14.6105831255        2.0485620137       -0.1540288111
 C       -13.6952710803        1.0186288148       -0.7999599518
 C       -12.5585789972        1.7580772549       -1.5696010238
 O       -12.7356298864        2.9173398458       -1.9639516792
 C       -11.1932708179        1.0602711029       -1.8214404993
 C        -9.9975807127        1.8639443817       -1.1407883064
 O       -10.0844932263        2.9935147371       -0.8004756968
 C        -8.7003291174        1.0342544584       -0.9365890831
 C        -8.5873494145        0.5532558155        0.6292891548
 C        -7.9368843074       -0.8438736150        0.6816984843
 O        -7.5617528408       -1.3925072122       -0.2962076697
 C        -7.9614943747       -1.5770852195        2.0877898928
 C        -8.5441972483       -0.7378301629        3.2444637639
 O        -9.6534639849       -0.2310684763        3.1788895028
 C        -7.7901772980       -0.5643568622        4.6205795221
 C        -7.6456537711        0.6998025538        5.5200177080
 C        -6.8488731238        1.8254395600        4.7783119561
 O        -6.2902873810        1.5596716179        3.7224074203
 C        -6.7680645644        3.2843342296        5.4512260662
 C        -7.6221095687        4.1442623499        4.3278003375
 O        -8.6784851421        4.6052466555        4.6817161585
 C        -7.0524727764        4.3327127914        2.8287178584
 C        -7.9822804284        5.2053119203        2.0367924155
 C        -7.1489164894        6.1905597702        1.2249958345
 O        -6.0081557011        6.0678242395        0.8081760155
 C        -7.9716179128        7.4653723987        0.5437316998
 C        -8.5721638302        6.7904261768       -0.7615857374
 O        -9.7928437583        6.5495380729       -0.8330347209
 C        -7.6643318551        6.4603704856       -1.9012258510
 C        -8.3231772501        6.8594703371       -3.2660249298
 C        -9.3459698229        5.8035900521       -3.7188947044
 O        -9.4425367753        4.7647247165       -3.0853044485
 C       -10.3236343867        6.0070579217       -4.9694173427
 C       -11.6088434344        6.9080206362       -4.4599275281
 O       -11.8956911604        6.8767784723       -3.2521846949
 C       -12.5330709135        7.5331243234       -5.5115998443
 C        -9.6739989623        6.6014897145       -6.2318852432
 C       -10.8969678507        4.5740105267       -5.2965229347
 C        -9.1189109777        8.0736737566        1.3651249900
 C        -6.9592977931        8.5124192887        0.2444092497
 C        -7.4113591071        3.3401292411        6.8127297892
 C        -5.3326294900        3.8118043055        5.5720127136
 C        -8.8292479398       -2.8659277147        1.9151901875
 C        -6.4344848770       -2.0081515766        2.3954398053
 C       -11.0470811665       -0.3869320827       -1.3005939438
 C       -10.8427635560        1.1080580633       -3.3718547923
 C       -15.8597618491        4.5116126074        0.8620698658
 C       -17.0885382393        4.8972252216       -1.2653052921
 H       -14.2494596394        4.2020187680       -3.0705121502
 H       -13.8504717682        5.9114672901       -3.2917237436
 H       -15.4806089905        5.3753854036       -3.1853182032
 H       -15.2052615307        1.5431263108        0.5573334112
 H       -14.0123709330        2.7597012860        0.4051254023
 H       -14.2548903329        0.4504220220       -1.6148157380
 H       -13.2491326015        0.3900629781       -0.0327424514
 H        -7.8520543980        1.6232540663       -1.0514251498
 H        -8.3850160799        0.1526190055       -1.5254764067
 H        -9.4884967047        0.6169090274        1.2958036422
 H        -7.8763222830        1.2391377169        1.1836140156
 H        -6.6954356399       -0.8718019625        4.4866374798
 H        -8.1278318946       -1.3969592185        5.2473204967
 H        -7.0869221668        0.4840283054        6.5005803066
 H        -8.6425825000        0.9837722606        5.8754840538
 H        -6.8688760332        3.3648512018        2.4655776576
 H        -5.9993929616        4.6819052211        2.8611627675
 H        -8.7523059517        5.7296169046        2.7229091708
 H        -8.5585487787        4.6297928401        1.3067394476
 H        -7.5220602966        5.3623901778       -1.8539496228
 H        -6.6939888647        6.8754392386       -1.7971467853
 H        -7.5648463801        6.8102141014       -4.0345181587
 H        -8.5155125570        7.8991847458       -3.1933530403
 H       -13.4040884593        7.9640958593       -4.9742661564
 H       -12.9976633135        6.6365751594       -6.0243219651
 H       -12.0352995032        8.1971776632       -6.2505693137
 H        -8.7749658211        6.0968727405       -6.6328031663
 H        -9.3748987338        7.6128437456       -6.0471626449
 H       -10.4487970049        6.7036924749       -7.0152713014
 H       -10.1733093030        4.0434260479       -5.9270531409
 H       -11.6585777963        4.7982655121       -5.9925588150
 H       -11.3047163542        4.0178605686       -4.4292068461
 H        -9.9220075081        7.2981190239        1.6814322317
 H        -9.6057395078        8.8089792830        0.7380715650
 H        -8.6983220758        8.5403244235        2.3044318290
 H        -7.1973170958        9.2037938607       -0.6353471082
 H        -6.1044893064        7.9612908907       -0.1200408555
 H        -6.6679092071        9.0963722723        1.0892959729
 H        -8.4865380757        3.4706169804        6.6128830627
 H        -7.1187958365        4.3029318843        7.2993049321
 H        -7.2241976038        2.4652810853        7.3648340934
 H        -4.8457449045        3.6837199772        4.6087198443
 H        -4.7638357539        3.2995622573        6.3330435424
 H        -5.2661110176        4.8853114029        5.8735438330
 H        -9.2795472503       -3.1560619933        2.9086324446
 H        -8.1508379194       -3.7430223183        1.6405650798
 H        -9.5461953026       -2.8402272967        1.1278722696
 H        -6.1841888261       -2.5103743594        3.3304009920
 H        -5.9505861682       -1.0231290463        2.5278050221
 H        -5.9573609503       -2.5542836861        1.6371783635
 H       -12.0163135135       -0.8856824693       -1.3977156276
 H       -10.6261531660       -0.4385510507       -0.3063451748
 H       -10.2975786401       -0.8288538471       -1.9724885897
 H       -11.3140390001        1.9685324874       -3.8198999032
 H       -11.2693537402        0.2178156187       -3.9179822148
 H        -9.7841366862        1.1094708894       -3.4946235443
 H       -14.8521733143        4.5182072088        1.3281009697
 H       -16.5090736630        3.7938016322        1.3626394421
 H       -16.2275891478        5.5630838066        1.1011132145
 H       -17.2222617545        4.7352133080       -2.3271699600
 H       -17.2349934055        5.9699903528       -1.2125855681
 H       -17.9806429962        4.4066602386       -0.8931458107
 Na      -11.3701549573        5.0569087859       -1.6453327181
