117

 C       -14.5927157517        5.2373539155       -2.8037113762
 C       -14.5588296934        4.9506200269       -1.2938463091
 O       -13.6564015558        5.2896421973       -0.5829735588
 C       -15.8055902903        4.3543431810       -0.6410939923
 C       -15.5124247734        2.8045937938       -1.0683772464
 O       -16.0536838005        2.3397190233       -2.0605093753
 C       -14.5729112295        2.0876632279       -0.1243370865
 C       -13.6524713381        1.0825942670       -0.8079288883
 C       -12.4886084638        1.7358360936       -1.5632303595
 O       -12.6742102925        2.8534579465       -2.0155639501
 C       -11.0952768119        1.0735530266       -1.8124703110
 C        -9.9253040840        1.8811542988       -1.0209091467
 O       -10.0755329902        3.0816460170       -0.7578959815
 C        -8.6820299666        1.1379624089       -0.7967566889
 C        -8.5501780566        0.5378965238        0.6334305533
 C        -7.9479434052       -0.9109405644        0.7489686882
 O        -7.5179747946       -1.4510472706       -0.2629947132
 C        -7.8750876425       -1.5678306534        2.1946809824
 C        -8.4932771816       -0.7467104519        3.4510092098
 O        -9.6677291459       -0.3485370218        3.3506332992
 C        -7.6601992070       -0.6863473460        4.7304543851
 C        -7.5840690736        0.6320067460        5.4934666206
 C        -6.7960641255        1.7749612993        4.8024378619
 O        -6.2354819487        1.5144755095        3.7450451390
 C        -6.7920841859        3.2412261287        5.3705556096
 C        -7.5835099543        4.2083325560        4.4064569936
 O        -8.6300048514        4.6873009816        4.7722123049
 C        -7.0979366303        4.5081841193        2.9882019642
 C        -7.9536473892        5.4745456669        2.1517273369
 C        -7.1918622115        6.2736625282        1.0570375458
 O        -6.1374429491        5.8511966147        0.6465381471
 C        -7.9479514380        7.5371524922        0.4446481743
 C        -8.5946730583        6.8639592483       -0.8116273171
 O        -9.8236554288        6.6239166338       -0.8253096105
 C        -7.6602890549        6.5062831852       -2.0388318449
 C        -8.3181011482        6.8651144213       -3.3927973731
 C        -9.3760071499        5.7969261250       -3.7822854465
 O        -9.4489130519        4.8129757664       -3.0583195787
 C       -10.3903951047        5.9788175684       -4.9968052787
 C       -11.6218335019        6.7427630370       -4.5866607865
 O       -11.9092379217        6.8378355165       -3.4066593022
 C       -12.3913842512        7.4829181022       -5.6271138637
 C        -9.6841289642        6.5346990493       -6.1857781312
 C       -10.9460365019        4.5194717960       -5.2886885413
 C        -9.0232188709        8.0751598854        1.4109331718
 C        -6.9184563112        8.6652161460        0.1327806094
 C        -7.4219605148        3.4353417006        6.7753173886
 C        -5.3257402772        3.7311005283        5.5110910467
 C        -8.8400368432       -2.8880258710        2.0233150520
 C        -6.4363279366       -2.0103700676        2.3317753776
 C       -11.1161879191       -0.4550908952       -1.4236764568
 C       -10.8539089992        1.2277676447       -3.3382413015
 C       -15.8158039906        4.5812552292        0.8991004980
 C       -17.1388248776        4.7979420318       -1.1730708723
 H       -14.5249158923        4.3729146031       -3.4477038133
 H       -13.8567379095        5.9917474336       -3.1591131792
 H       -15.4959850022        5.6825926582       -2.9846447344
 H       -15.2179135848        1.5197724988        0.5791977393
 H       -13.9683239162        2.8417526315        0.3970543472
 H       -14.2315400639        0.5999061225       -1.5980933562
 H       -13.2075078413        0.3761086043       -0.0750097841
 H        -7.7137555664        1.6306996945       -1.0914613942
 H        -8.5926790203        0.2542360138       -1.4736211421
 H        -9.5190001906        0.4991786530        1.1191094509
 H        -8.0225772787        1.2331276999        1.3103430533
 H        -6.6679246963       -1.0287859252        4.5177692403
 H        -8.0348160617       -1.4818901783        5.4103225731
 H        -7.1899616409        0.5727716434        6.5391702652
 H        -8.6244943430        0.8770953068        5.6065601219
 H        -6.9699997744        3.5137526157        2.6496377175
 H        -6.0093838394        4.7704705942        2.9937077883
 H        -8.4784073228        6.1461641968        2.8940583149
 H        -8.7950167669        4.9335406202        1.6175179394
 H        -7.4240528775        5.4563368750       -2.0374318879
 H        -6.7175996402        6.9575953407       -1.9741059373
 H        -7.5318110009        7.1030675663       -4.1206776073
 H        -8.7438749445        7.8440776160       -3.2383803518
 H       -13.1515116304        8.0401918554       -5.1085030175
 H       -12.9312324548        6.7764057756       -6.2746839153
 H       -11.7412233083        8.1060485916       -6.1783121954
 H        -8.6751889286        6.1502706958       -6.2863529124
 H        -9.5654519519        7.6451351988       -6.1727002808
 H       -10.2762343301        6.3066561836       -7.0635281181
 H       -10.1481631290        3.9693081765       -5.8308631347
 H       -11.8029330731        4.5680333192       -5.9809267321
 H       -11.2305662535        4.0724922322       -4.2706370007
 H        -9.9368235310        7.4446003864        1.5232483715
 H        -9.2933684093        9.0489804861        1.0348510131
 H        -8.5307240998        8.2041109001        2.4314380686
 H        -7.3416538165        9.2990043098       -0.5833876033
 H        -6.0836659072        8.2590940413       -0.4192370861
 H        -6.5947745656        9.2841521472        0.9779315301
 H        -8.5030522870        3.3359034858        6.6817424930
 H        -7.3066744790        4.5036840959        7.0995780205
 H        -6.9896049614        2.6766989026        7.4206584686
 H        -4.6266010147        3.6167891936        4.5822019722
 H        -4.8776991060        3.1261005205        6.3565765989
 H        -5.2630130510        4.7931151833        5.8691499056
 H        -9.3444788535       -3.1403657703        2.9591209483
 H        -8.4373646781       -3.7849378626        1.5853730847
 H        -9.6095759434       -2.5876412913        1.2914022905
 H        -6.2281158532       -2.6599057146        3.2387705978
 H        -5.8170259340       -1.1454396094        2.5272225480
 H        -6.0547792172       -2.5154331496        1.4420465502
 H       -12.1651781529       -0.7602279890       -1.6974903334
 H       -11.0023033231       -0.4656265288       -0.2753292040
 H       -10.3158759234       -1.0799084235       -1.8861416607
 H       -11.3062541234        2.1176328565       -3.7172005888
 H       -11.3236352431        0.4164108924       -3.8532889347
 H        -9.7723488838        1.1965385850       -3.5596046879
 H       -14.7731562904        4.5517067141        1.3343853478
 H       -16.4101364191        3.8230931971        1.3475179157
 H       -16.1963514220        5.5739860174        1.2279932903
 H       -17.3907276003        4.7241141628       -2.2306569221
 H       -17.4793784752        5.8597800916       -1.0170823412
 H       -17.8666437046        4.1092650122       -0.7490215945
 Na      -11.5309906950        4.9386607906       -1.7595018250
