117

 C       -15.2405395694        5.5357460374       -2.6812522223
 C       -14.8661566708        5.0591802276       -1.3174997211
 O       -13.7353102508        5.2818614003       -0.9581542648
 C       -15.9148355423        4.3032429309       -0.5081996480
 C       -15.4156186529        2.7396814870       -0.8408297238
 O       -15.8214147436        2.2036618104       -1.8736670943
 C       -14.2822223384        2.0222296952        0.0932091188
 C       -13.4419601672        0.9952742003       -0.7450596732
 C       -12.4588901976        1.7245495971       -1.6373235906
 O       -12.6550460103        2.8200989786       -2.1044256588
 C       -11.0063258875        1.1920439343       -1.7651699214
 C       -10.0961073925        1.9347772940       -0.7557626933
 O       -10.2360382871        3.1524011793       -0.5858567871
 C        -8.9121287509        1.2149416682       -0.1805148597
 C        -8.9495497552        0.4205560453        1.1568205510
 C        -8.1445960039       -0.8521986623        1.1087279356
 O        -7.6722370229       -1.2485106502        0.0355568165
 C        -7.8225733804       -1.7559846167        2.3645678857
 C        -8.2119614954       -0.8334975472        3.6497066599
 O        -9.3478397175       -0.3598959975        3.6522337364
 C        -7.2733441473       -0.6794656690        4.7958455352
 C        -7.4420502927        0.6422120089        5.4698476228
 C        -6.8654009169        1.8113953973        4.6463405518
 O        -6.5576995163        1.6714773316        3.4756435543
 C        -6.6831493898        3.2873709471        5.2706991551
 C        -7.4453638830        4.4138707237        4.3882136363
 O        -8.5142831494        4.8172752203        4.7841278329
 C        -6.8575230909        4.8220557944        3.0327034409
 C        -7.4544838220        6.1784423241        2.6119768418
 C        -7.4665464485        6.2549952173        1.0208513467
 O        -6.8700219354        5.4864193337        0.3095295457
 C        -8.0514597415        7.5395810660        0.3320243609
 C        -8.7363451406        7.1131692392       -1.0528913634
 O        -9.8666531879        6.7143525689       -0.9442726780
 C        -7.9101438110        6.9499694760       -2.3038737998
 C        -8.6866471260        6.8029106661       -3.6613155789
 C        -9.4571767848        5.5626006489       -3.9406607534
 O        -9.4760122721        4.5973968003       -3.2226185330
 C       -10.3415433935        5.6390275040       -5.2331340057
 C       -11.5608077042        6.5824334365       -4.8456563762
 O       -12.1320069133        6.3687618175       -3.8278634064
 C       -11.9888228042        7.6414001634       -5.8199883162
 C        -9.5338043735        6.1885514259       -6.4173308649
 C       -10.8927174195        4.2440885797       -5.6116492976
 C        -9.1361525258        8.3811693506        1.0865634618
 C        -6.6950231324        8.3805617789        0.0740960139
 C        -7.3335473426        3.3984320814        6.7358879122
 C        -5.1817927926        3.6178417895        5.4251267462
 C        -8.7439031372       -3.0141461503        2.2112521021
 C        -6.3681921819       -2.2135900734        2.3837901957
 C       -10.9871648573       -0.3854190457       -1.5405131712
 C       -10.5369857829        1.4688601993       -3.1674880145
 C       -15.7868846452        4.5959509107        1.0376366519
 C       -17.3311613659        4.4617361940       -1.0417757332
 H       -15.7555427837        4.7442257980       -3.2516732538
 H       -14.4215160923        5.9183781778       -3.2606894754
 H       -15.9082580108        6.3780710200       -2.5547099983
 H       -14.7802176627        1.4659594710        0.8393644693
 H       -13.6519444316        2.8120230948        0.3836774399
 H       -14.0935840538        0.4208825012       -1.4285772902
 H       -12.8097381113        0.3082557043       -0.1103970819
 H        -8.0571423934        1.9524178923       -0.1413047991
 H        -8.5478352001        0.6244074384       -0.9882767018
 H       -10.0082235193        0.2754963512        1.4639580266
 H        -8.5781894894        1.1180927191        1.9626417395
 H        -6.2324615547       -0.8374118823        4.5513763986
 H        -7.5553501724       -1.4041968586        5.6346297196
 H        -6.9483696954        0.5318237841        6.4747732426
 H        -8.5185592574        0.8573738070        5.5549541530
 H        -7.0761812169        4.0617085730        2.3054475917
 H        -5.7570851542        4.8343006613        3.0442359010
 H        -6.7742877351        7.0087492682        2.9087286145
 H        -8.4078333979        6.4824217272        3.1496392822
 H        -7.2573357409        6.1026958186       -2.1374660579
 H        -7.1979789991        7.7467563098       -2.4221312357
 H        -7.9531530554        7.0307795775       -4.4309656261
 H        -9.3681839181        7.6178751503       -3.7514725907
 H       -13.0028593267        7.9871599077       -5.4725311400
 H       -12.1162113745        7.1838686130       -6.8303364036
 H       -11.3771752087        8.5624179393       -5.7399498197
 H        -8.7999670192        5.4748252634       -6.7584223386
 H        -8.9659381429        7.1256980793       -6.2061235514
 H       -10.2123803791        6.3233327470       -7.2405491255
 H       -10.0935060218        3.5575419029       -5.5507714906
 H       -11.4463949088        4.2758477379       -6.5647491236
 H       -11.5243121719        3.9764458190       -4.7897289052
 H        -9.7446810379        7.7334608851        1.7262097695
 H        -9.7243828639        9.0961980970        0.4302291042
 H        -8.6104330731        9.0799017762        1.8033360980
 H        -6.7636086809        9.2473181866       -0.5356067689
 H        -5.8731590729        7.7850811734       -0.3972031948
 H        -6.3190877720        8.7834702214        1.0740581951
 H        -8.3776430022        3.5807792595        6.6556554372
 H        -6.9344774848        4.3089062546        7.1741516456
 H        -7.0372641027        2.5544522343        7.3672923303
 H        -4.5924187032        3.5764674444        4.5274495259
 H        -4.7041188682        2.8784799802        6.0508601171
 H        -5.1161102386        4.6011447954        5.7620909066
 H        -8.3441335871       -3.9667214266        2.5919403421
 H        -9.0055896453       -3.1648742400        1.1642545918
 H        -9.7455675165       -2.8730708528        2.7753668606
 H        -6.2291472181       -2.7537906008        3.3246790731
 H        -5.6126097277       -1.5101576789        2.2552303915
 H        -6.2271597659       -2.8914286470        1.5427424796
 H       -11.8334663326       -0.8211270707       -2.0169022389
 H       -11.0429712187       -0.5411786595       -0.4701390395
 H       -10.1418213467       -0.8064694882       -2.0247121456
 H       -10.0342997736        2.4378062316       -3.2893505970
 H       -11.3301580942        1.4085290417       -3.8756767490
 H        -9.7847522054        0.6701447725       -3.4390559380
 H       -14.6810873499        4.6073926940        1.2567107673
 H       -16.3529638582        3.9092313261        1.6776119852
 H       -16.2070889897        5.5973220735        1.2362904232
 H       -17.5379449558        3.9893898351       -1.9842655796
 H       -17.7037433604        5.4719417227       -1.2503553818
 H       -18.0209099389        4.0478627329       -0.3426586229
 Na      -11.3961494988        5.0773886228       -1.6957826093
