117

 C       -15.1437741586        5.7929985334       -2.5969805218
 C       -14.6799712008        5.0313080427       -1.2863165755
 O       -13.5560319669        5.0741313716       -0.8883902378
 C       -15.7174254155        4.2365499227       -0.4016413745
 C       -15.1676778226        2.7833387978       -0.6268227828
 O       -15.7961706884        2.0204363254       -1.3522868933
 C       -13.8534841168        2.2797144588        0.1897121863
 C       -13.1958035288        1.0778866385       -0.5015181805
 C       -12.2016979798        1.6014280880       -1.5459383912
 O       -12.6090257636        2.4650356745       -2.3129014531
 C       -10.7226608769        1.3592249029       -1.4968955055
 C       -10.0168618558        2.2295571053       -0.3831782523
 O       -10.2349542005        3.4221799533       -0.4600335026
 C        -9.0581812217        1.7855042387        0.6945996767
 C        -9.4439877303        0.5642921144        1.5889151982
 C        -8.3480390214       -0.5162258888        1.3848010436
 O        -7.8795915357       -0.7379249119        0.2759190228
 C        -7.9542674784       -1.5766667329        2.5482866560
 C        -7.9117874769       -0.8092061120        3.9253793388
 O        -8.9395811937       -0.5944776863        4.5384322697
 C        -6.5579272082       -0.2739811749        4.4780839181
 C        -6.6532847179        0.9537394163        5.3143506465
 C        -7.1488011854        2.1624297727        4.5760694998
 O        -7.7276553037        2.1500879008        3.5039211371
 C        -6.5430871649        3.5942247187        5.1126717789
 C        -7.1839332451        4.7455819763        4.2978967888
 O        -8.1444786531        5.3432563637        4.6976543131
 C        -6.6119994662        5.1017890894        2.9198540926
 C        -7.3915744090        6.2976250502        2.3655113623
 C        -8.0182305665        5.9753898376        0.9563792641
 O        -8.0316638780        4.8409600155        0.5124810024
 C        -8.4488620050        7.2300826405        0.1277336462
 C        -9.0537279485        6.6456695411       -1.3204007684
 O       -10.2532696448        6.4082983922       -1.3998987468
 C        -8.0457887672        6.5710400490       -2.4498133448
 C        -8.7342806270        6.7209262803       -3.7981906164
 C        -9.2960424806        5.3409605317       -4.2944778883
 O        -8.9718969229        4.2645742009       -3.8128004278
 C       -10.3310660834        5.4405009215       -5.4573114810
 C       -11.6215658206        6.2534788169       -4.9782588650
 O       -12.1861286617        5.9073877270       -3.9810986426
 C       -12.0970786475        7.4226897552       -5.7734240993
 C        -9.6726460293        6.1052299183       -6.7304717727
 C       -10.8098536924        4.0589725826       -5.9340545758
 C        -9.5267437415        8.0333068976        0.7677541388
 C        -7.2123900246        8.1151649678       -0.1325764268
 C        -6.8994946530        3.8927270855        6.5571071087
 C        -5.0765919337        3.4561298081        4.9218028055
 C        -9.1029150094       -2.5595853378        2.7158812658
 C        -6.6594812255       -2.3414675502        2.1265931124
 C       -10.5248762212       -0.1997242565       -1.2587959447
 C       -10.2131911320        1.5684118607       -2.9398522831
 C       -15.5804015812        4.7658171865        1.1247710173
 C       -17.1443061678        4.3130819459       -0.8629997676
 H       -15.8971695051        5.1957360003       -3.1289309015
 H       -14.3629952615        6.1490844648       -3.2066160169
 H       -15.8080602888        6.5693970981       -2.2107842388
 H       -14.2186879157        2.0269983842        1.2380305529
 H       -13.1448135527        3.1765693348        0.2704483178
 H       -13.9627495800        0.4108332520       -0.9118402582
 H       -12.6743457245        0.4370841907        0.1637626668
 H        -8.9958598565        2.7319405966        1.2769360449
 H        -8.1286368665        1.5670319871        0.0991706877
 H       -10.4010097656        0.1402363800        1.4551155156
 H        -9.2913471405        0.8674405279        2.6394981345
 H        -5.8421424512       -0.1052147084        3.6900899817
 H        -6.2766878124       -1.1582840267        5.0548488858
 H        -5.6517538020        1.2433682254        5.7177951135
 H        -7.3474326327        0.7075689464        6.0647746505
 H        -6.8722004134        4.3001525237        2.2159105956
 H        -5.4807824559        5.3499337137        3.0085192464
 H        -6.7824455269        7.2441970444        2.2416533979
 H        -8.0678228769        6.5446443775        3.1871912120
 H        -7.4899542379        5.5943618589       -2.4759363327
 H        -7.3048202965        7.3303768040       -2.3482069070
 H        -7.9909433187        7.1920317266       -4.4906025744
 H        -9.6300004758        7.3680994716       -3.7294943241
 H       -12.9157544499        7.7370321319       -5.1780226399
 H       -12.4287765366        7.0340916592       -6.7240334196
 H       -11.3894183837        8.1948301065       -5.9392041202
 H        -8.7465201850        5.5568047703       -6.8340451429
 H        -9.4899008926        7.1939344906       -6.5557463561
 H       -10.2794991561        6.0148757799       -7.6208095003
 H        -9.9489896873        3.4026982823       -6.2045509043
 H       -11.5094777970        4.1740313729       -6.8330218145
 H       -11.4411903202        3.6388528803       -5.1196422971
 H       -10.1857320844        7.3978177239        1.2670874734
 H       -10.2005704815        8.4702907279        0.0184195889
 H        -9.2056239290        8.7528812948        1.5004552191
 H        -7.3028666176        8.8780751754       -0.8136390095
 H        -6.4025712340        7.4768287459       -0.4584406520
 H        -6.7557240091        8.5498561049        0.7603180605
 H        -7.9845880670        3.8884778542        6.5990606519
 H        -6.3853333505        4.8201555065        6.8778933187
 H        -6.5831768770        3.0495559919        7.2191595074
 H        -4.8895736469        3.2103627307        3.8327320323
 H        -4.5764526913        2.7850345088        5.6831289062
 H        -4.5073358436        4.3639496756        5.1988279046
 H        -8.8337805211       -3.5934764006        2.8706067670
 H        -9.8199270170       -2.5623399563        1.9256634353
 H        -9.6516900049       -2.2023094940        3.6456852919
 H        -6.3517967312       -3.0695432780        2.9264077467
 H        -5.8892886536       -1.6214751723        1.9657796419
 H        -6.9144594596       -2.9594430451        1.2578506228
 H       -11.2171452726       -0.8084276274       -1.8905545991
 H       -10.7514311988       -0.5721341415       -0.1971731076
 H        -9.4347773956       -0.4203897864       -1.3623871956
 H       -10.1940400970        2.5875288386       -3.3049041482
 H       -10.8124961572        1.0101258056       -3.6183941985
 H        -9.1741815908        1.2300078076       -3.0432355619
 H       -14.5424280083        4.6777440811        1.5088707833
 H       -16.2213802121        4.1136721964        1.6726889067
 H       -15.9336007934        5.8100654950        1.1129241328
 H       -17.3693269973        3.8045284627       -1.8175065496
 H       -17.4416652479        5.4127764806       -0.9928892657
 H       -17.9025187942        3.9051453473       -0.1872613708
 Na      -11.5593798719        4.6094263380       -2.1310543455
