117

 C       -14.9594761938        5.7135714366       -2.5535400889
 C       -14.5668409578        5.0025145970       -1.2493944050
 O       -13.3776487051        4.9989114807       -0.8442947445
 C       -15.6304734132        4.2255522053       -0.3396437318
 C       -15.2069412877        2.6853299366       -0.5224225110
 O       -15.7460499856        1.8779007254       -1.2558089476
 C       -13.9279502460        2.3497284160        0.3327187800
 C       -13.1875857937        1.2204650999       -0.3219178828
 C       -12.2777913843        1.6010067766       -1.5130470938
 O       -12.5944643595        2.3737201592       -2.4009370994
 C       -10.7356424611        1.1549501421       -1.4535811332
 C       -10.1307420409        2.1549581135       -0.4445021129
 O       -10.2422487046        3.3535456622       -0.6482473900
 C        -9.1831662492        1.8178873311        0.7368727399
 C        -9.4936935788        0.6673391149        1.6717481847
 C        -8.4082597883       -0.5115448366        1.4731096668
 O        -7.7073481974       -0.4553572024        0.4753799652
 C        -8.1716691635       -1.6031128389        2.5593193052
 C        -7.9276202657       -0.8068621345        3.9530671315
 O        -8.8828677696       -0.5391483213        4.6920937590
 C        -6.5324641530       -0.2052350552        4.2342370375
 C        -6.5511411261        0.9193713995        5.2997036580
 C        -6.9325124870        2.3074790776        4.6574079200
 O        -7.6901025391        2.3076146123        3.7103628794
 C        -6.3824412230        3.6622551691        5.1707229435
 C        -7.1764158438        4.8867447701        4.4300934026
 O        -8.1200697520        5.4326285319        4.9662887714
 C        -6.8356351493        5.0399844020        2.9319213811
 C        -7.4458716486        6.3270567668        2.2999895708
 C        -7.9934355603        5.9816780139        0.9179028546
 O        -8.2115194514        4.9101574375        0.4371945790
 C        -8.4581364429        7.2962345338       -0.0631216018
 C        -8.9971224470        6.7221056395       -1.3739678238
 O       -10.1154241280        6.2350315562       -1.4662277859
 C        -8.0248656755        6.3715005078       -2.5604822099
 C        -8.6973916742        6.6458116992       -3.9618916216
 C        -9.3462033033        5.3411984339       -4.4645236846
 O        -9.0626789085        4.2630155248       -4.0777488370
 C       -10.3769368557        5.4467449776       -5.6497562178
 C       -11.6362312892        6.2329650188       -5.1252893934
 O       -12.0830989206        5.9415905988       -4.0108513140
 C       -12.3056843699        7.3016079032       -5.9383696891
 C        -9.7292644088        6.1400808604       -6.9071907207
 C       -10.9127230071        4.0113967046       -5.9693030397
 C        -9.7423120524        7.7817884983        0.7502825844
 C        -7.4500560217        8.5027325594       -0.2627011510
 C        -6.6389827673        3.6770094215        6.7083289561
 C        -4.8468434835        3.8684068363        4.8848347021
 C        -9.3822015477       -2.5983642702        2.7107364188
 C        -6.8515509083       -2.3280736852        2.1802192015
 C       -10.5771695295       -0.2986111027       -1.1152696296
 C        -9.8801518880        1.4150988079       -2.7351322235
 C       -15.4901372934        4.7475633156        1.1538762746
 C       -17.0115059790        4.4587478639       -0.8354117978
 H       -15.6674174419        5.1457908904       -3.1606804981
 H       -13.9474477323        5.8629904803       -3.1003795404
 H       -15.5249195719        6.6261100698       -2.3519249858
 H       -14.3970689210        2.0003973579        1.2267464789
 H       -13.3470354358        3.1705573801        0.6633594939
 H       -13.9248184813        0.5384930328       -0.7563614855
 H       -12.6531006679        0.5301314118        0.3683803226
 H        -9.2288637791        2.7242587875        1.2859492549
 H        -8.2882188329        1.6939935765        0.1663099386
 H       -10.5257644594        0.3282454480        1.3512181219
 H        -9.4501388479        0.9964598891        2.7028978377
 H        -6.0912555898        0.1726298907        3.2652260550
 H        -5.8570436218       -1.0230430025        4.6066296460
 H        -5.5508794396        0.9297366145        5.6967210904
 H        -7.2694362825        0.5971835529        6.1275981075
 H        -7.2615421539        4.1472817528        2.4467826354
 H        -5.8239531322        5.1693536314        2.7875943536
 H        -6.6595325694        7.0097994702        2.1684506156
 H        -8.1716795092        6.8156470488        2.9377549000
 H        -7.8839586079        5.2934914298       -2.3696745400
 H        -6.9904746980        6.8352724302       -2.5814704105
 H        -7.9497912056        6.8999139236       -4.7092911706
 H        -9.4298911017        7.4627382843       -3.8863081427
 H       -13.2830919859        7.4991030105       -5.4893329420
 H       -12.3436641165        7.0682010813       -7.0112580634
 H       -11.6015640914        8.1319600692       -5.8742911018
 H        -8.7141458239        5.7343072349       -6.9975571994
 H        -9.6651823855        7.1909241615       -6.7432353490
 H       -10.3473157637        5.9660431403       -7.8021410580
 H       -10.0989054800        3.5471560824       -6.5134592803
 H       -11.7647380081        3.9149351282       -6.5444123447
 H       -11.0511365404        3.5269614619       -5.0024632698
 H       -10.5737090078        7.0636127686        0.7755352806
 H       -10.1633903698        8.6517273627        0.3972651325
 H        -9.4404191349        7.9536587430        1.7995980888
 H        -7.8679573651        9.2725699258       -0.9868952358
 H        -6.4784064647        8.2673123570       -0.6630698919
 H        -7.2558658780        9.0332344835        0.6395576974
 H        -7.5588033448        4.2580214303        6.9357047532
 H        -5.7579344610        4.1691331027        7.1384042348
 H        -6.7989001403        2.6963146446        7.0966058434
 H        -4.5827099580        3.4723149403        3.9358211572
 H        -4.2201712198        3.5272410172        5.6489985251
 H        -4.6024505387        4.9230426801        4.8691410175
 H        -8.9596264229       -3.5846855829        2.9107220864
 H        -9.9425222067       -2.6372550567        1.7587859141
 H       -10.0811807991       -2.3883310349        3.4346522761
 H        -6.6802957221       -3.1420428771        2.8561411648
 H        -6.0206460256       -1.5862354056        2.2814002433
 H        -6.9429290385       -2.7323021480        1.1880587883
 H       -10.9554815506       -0.8383894476       -1.9647715110
 H       -11.1458510021       -0.6365535533       -0.2957133335
 H        -9.5830047110       -0.5626799775       -0.8588891438
 H        -9.9191887054        2.4660693537       -2.9782201157
 H       -10.2853155101        0.9187143707       -3.6505647132
 H        -8.8406015159        1.1949330534       -2.6552583261
 H       -14.4599054127        4.8723632907        1.3585433186
 H       -16.0014223809        4.1004390323        1.8581866257
 H       -15.8958826451        5.7327953217        1.0989074607
 H       -17.1191235111        4.0197892563       -1.8263848012
 H       -17.3139376703        5.4741981283       -0.8883183002
 H       -17.7854898614        3.8937575780       -0.2863151887
 Na      -11.6422825418        4.4579001163       -2.1408349175
