117

 C       -15.2276456726        5.7796393178       -2.5147558724
 C       -14.7552308631        5.1491954405       -1.2386747223
 O       -13.5637456634        5.2380727301       -1.0450595588
 C       -15.7371975601        4.2492321664       -0.3916093434
 C       -15.2759396562        2.7296600750       -0.5941161347
 O       -15.7616648746        1.9782449124       -1.4240359664
 C       -14.0542573427        2.2499637773        0.2439647952
 C       -13.3351098786        1.1501797216       -0.5205337897
 C       -12.2591611753        1.7341317254       -1.4839063301
 O       -12.6430872111        2.5454892568       -2.3520028296
 C       -10.7163302128        1.2635593210       -1.5430271343
 C       -10.0682270500        2.2505066010       -0.4406976170
 O       -10.3657488590        3.4320600544       -0.4724805537
 C        -8.9316314975        1.7997026379        0.5716229244
 C        -9.2948427243        0.5806758432        1.5643822839
 C        -8.2994277179       -0.6310264107        1.4030078357
 O        -7.9840242972       -0.8733636504        0.2323958602
 C        -7.9364555466       -1.5650462974        2.5760587701
 C        -7.8096678653       -0.8553774723        3.9437828747
 O        -8.9114258979       -0.5326365131        4.4488443684
 C        -6.5248113493       -0.2988421551        4.5475532078
 C        -6.8367486476        0.8938297065        5.4520115935
 C        -7.1416010772        2.1381905913        4.5470529064
 O        -7.6880589856        2.0813840551        3.4651314895
 C        -6.6073715091        3.5264294249        5.0660466494
 C        -7.1930455644        4.7361091821        4.2025775204
 O        -8.2063346857        5.2852335052        4.5928934548
 C        -6.5720279230        5.1333423432        2.8498662874
 C        -7.3704051390        6.2531021825        2.3414584568
 C        -7.9227565468        5.9463124501        0.9945652231
 O        -7.8692231562        4.8226270328        0.5901195334
 C        -8.4957944929        7.1894056951        0.1559871393
 C        -9.0044533554        6.8130683515       -1.2328216667
 O       -10.1911910816        6.5037783365       -1.3104935569
 C        -8.1089424321        6.6586714610       -2.3970393630
 C        -8.7692172376        6.6839031594       -3.7680894197
 C        -9.3690914575        5.3358021944       -4.2266410281
 O        -8.9278408526        4.3805493199       -3.6870777525
 C       -10.3502421560        5.4185007582       -5.4055697672
 C       -11.6229483361        6.2754336525       -4.9016225370
 O       -12.2573440699        5.9022676241       -3.9396729318
 C       -12.0069964396        7.4659172079       -5.7328290583
 C        -9.6036021861        6.1073875398       -6.6375257072
 C       -10.7968765070        4.0298122995       -5.9241755203
 C        -9.5133134603        8.1424306172        0.8011609248
 C        -7.0759493661        7.9604683507       -0.0813196999
 C        -7.0872619041        3.8085572656        6.5540743426
 C        -5.0573325445        3.3530131974        4.9156383034
 C        -9.1027138497       -2.6062175945        2.5679724883
 C        -6.5902732614       -2.3147407365        2.1979135243
 C       -10.4798439437       -0.3049815538       -1.4037147167
 C       -10.2094768226        1.6592486759       -2.9424866771
 C       -15.6386954196        4.6819625155        1.0660712370
 C       -17.1260812124        4.2364953426       -0.8592740816
 H       -15.7765776904        4.9914743165       -2.9607599556
 H       -14.3854054581        6.1637564958       -3.1591781419
 H       -15.9385968427        6.4943760623       -2.3881830555
 H       -14.4831710995        1.8437512241        1.1838110903
 H       -13.4503907304        3.1796472873        0.4699737551
 H       -14.0920254371        0.5301646720       -1.0741798788
 H       -12.8581896617        0.4277085967        0.1256553757
 H        -8.7932251307        2.7409298287        1.0515474111
 H        -8.0252963753        1.4939329502       -0.1034897595
 H       -10.2474184642        0.0949508324        1.3101796509
 H        -9.3460363153        0.9194344024        2.5859283539
 H        -5.8488226653        0.0425009113        3.7166743615
 H        -6.1816476842       -1.1585007476        5.0389550547
 H        -5.9844830626        1.1825540157        6.0448239953
 H        -7.7592618955        0.5739516488        5.9817980617
 H        -6.6139241168        4.3214113667        2.0957896788
 H        -5.5790202714        5.5566593446        3.0606069002
 H        -6.7324045043        7.1965273788        2.2590383355
 H        -8.1148044007        6.5380827056        3.1587298599
 H        -7.7101854799        5.6578794987       -2.3509649543
 H        -7.2742679857        7.2833949955       -2.4125206454
 H        -7.9588484678        6.9747212892       -4.4191977043
 H        -9.5576310743        7.4434514574       -3.8558393232
 H       -12.7574664162        8.0550637960       -5.1856638738
 H       -12.3340936122        7.1233285317       -6.7643731999
 H       -11.1229245645        8.0752978822       -5.8128943298
 H        -8.8951049993        5.3759107587       -7.0522422665
 H        -9.1583838545        7.0143587652       -6.3101848441
 H       -10.3381818810        6.4043340252       -7.4075071778
 H        -9.8980073287        3.3620730855       -5.9136578693
 H       -11.1608734768        4.1228994291       -6.9109618885
 H       -11.6578538335        3.6137211629       -5.3086434597
 H       -10.2948901109        7.6546180022        1.4655492256
 H       -10.1162787406        8.7238134116        0.1412533157
 H        -8.8632198803        8.7639063298        1.5210353462
 H        -7.0213666330        8.7712037703       -0.8568797621
 H        -6.2361951129        7.2849878583       -0.2765481549
 H        -6.7146425383        8.4373784568        0.7985678384
 H        -8.0940038803        3.4301485268        6.6973966864
 H        -6.8827196028        4.8897059554        6.7718805415
 H        -6.4651493104        3.2868290532        7.2198780195
 H        -4.8250065042        3.3020504419        3.8081144520
 H        -4.6092096277        2.5799993194        5.5099188817
 H        -4.5327819905        4.2160498320        5.3437953789
 H        -8.6913405052       -3.5936753597        2.9589769274
 H        -9.5354835578       -2.8806395408        1.5707170320
 H        -9.8825295472       -2.3158860611        3.2595779344
 H        -6.0782203684       -2.7763587198        3.0558601968
 H        -5.9462941820       -1.5412187118        1.7478906699
 H        -6.8206580216       -3.0898309651        1.5364769563
 H       -10.8276348435       -0.8186523269       -2.3342637783
 H       -11.0720625682       -0.8133395292       -0.5971894025
 H        -9.4240952427       -0.4494344347       -1.1499220711
 H       -10.3365608037        2.7190423204       -3.0119459622
 H       -10.7792934731        1.2197638497       -3.8090647190
 H        -9.1674920485        1.5268241206       -3.1216435266
 H       -14.5974148557        4.5253442404        1.4399172040
 H       -16.2547309267        3.9706619466        1.5678349113
 H       -16.0029685143        5.7549854972        1.1626711605
 H       -17.2470442474        3.6908100971       -1.7894350252
 H       -17.5360272948        5.2518805296       -1.0138553083
 H       -17.8445092215        3.7901626647       -0.1754618021
 Na      -11.3943941513        4.7376326398       -2.1474998820
