117

 C       -14.9468866495        4.9618561543       -2.7034694131
 C       -14.4572869287        4.6047794687       -1.2467494161
 O       -13.3116742866        4.6118721579       -0.9980140939
 C       -15.5010402680        4.2090666010       -0.0432621616
 C       -15.2534075270        2.5813895609       -0.2294519870
 O       -16.0198954955        1.9766026388       -0.9263665298
 C       -13.9400017226        1.9364316480        0.4175117144
 C       -13.2876896813        0.8048175105       -0.4527321865
 C       -12.3715370142        1.3488526118       -1.4881319970
 O       -12.8119922939        2.2086828587       -2.2690792415
 C       -10.8184848082        0.9996968189       -1.4912739107
 C       -10.0724620783        2.0277366781       -0.6784856092
 O       -10.2806285343        3.2060337133       -0.9113745149
 C        -9.0634781300        1.6945082476        0.4066009053
 C        -9.2973721567        0.8655918004        1.6635076087
 C        -8.2211920537       -0.2787607186        1.9424860493
 O        -7.2680134231       -0.3874386148        1.2133535166
 C        -8.4186043552       -1.1269542623        3.2434173161
 C        -7.6741445295       -0.3973173237        4.5054660903
 O        -8.1384587928       -0.3880203159        5.6137699457
 C        -6.2122391835       -0.0118991514        4.3282862177
 C        -5.7870754667        1.3051189956        5.0109365013
 C        -6.5831460309        2.5143637294        4.5699435208
 O        -7.5720107136        2.3481472438        3.9155044556
 C        -6.0745917946        4.0017415782        4.9259853695
 C        -6.8729053894        5.0498470773        4.0337016689
 O        -7.3204587929        6.0126765990        4.6626340851
 C        -6.9963417722        5.0049678845        2.5647207859
 C        -8.2540038660        5.7840643427        2.0818678178
 C        -8.0877799531        6.1672576787        0.5908453397
 O        -7.1681522350        5.6406148852       -0.0887096761
 C        -8.9662233584        7.2409138944       -0.0770575107
 C        -9.4545882380        6.5657391709       -1.4489958190
 O       -10.6368444050        6.4046544484       -1.7472285536
 C        -8.3416239966        6.0943189914       -2.4232788448
 C        -8.5887575785        6.2969663578       -3.9595980468
 C        -9.6001354874        5.2484542290       -4.4607633052
 O        -9.6834626760        4.1599212937       -3.8483103162
 C       -10.2951837995        5.4051007333       -5.8416174683
 C       -11.7956745652        6.0327691878       -5.5723304978
 O       -12.3844421037        5.7068635904       -4.5678364862
 C       -12.3888763164        6.9855116552       -6.5996674217
 C        -9.4394119398        6.3091913297       -6.8235507655
 C       -10.5132533500        4.0544071742       -6.5130921772
 C       -10.3471076143        7.5687662659        0.6623065603
 C        -8.0060965934        8.4590730877       -0.2180127812
 C        -6.3577930544        4.3453221472        6.3954132101
 C        -4.5638466511        4.0265833658        4.7840115564
 C        -9.9165873225       -1.2975903644        3.6877540143
 C        -7.8054568686       -2.6147552649        3.2035812256
 C       -10.6255357974       -0.5116502981       -1.1058936714
 C       -10.3439914345        1.1949287901       -2.9273228180
 C       -14.9244905076        4.6311789785        1.3185827916
 C       -16.9505952468        4.6334618676       -0.3117573475
 H       -15.4880514623        4.0719902082       -3.1447045714
 H       -14.1506910713        5.1554601682       -3.3751513543
 H       -15.5649679203        5.9184962852       -2.7215678258
 H       -14.3024363046        1.5017945819        1.3475384617
 H       -13.2097627136        2.7056162807        0.7245435283
 H       -14.1411084185        0.3169282757       -0.9684951975
 H       -12.7780585916        0.1273426403        0.1742977386
 H        -8.6739040508        2.6683299419        0.6388577784
 H        -8.2798291762        1.1452952765       -0.1823527105
 H       -10.3270822336        0.5070747942        1.6502952507
 H        -9.2152418376        1.5554296672        2.5581592791
 H        -6.0196455123        0.1032867463        3.2250365374
 H        -5.6286310220       -0.8945440265        4.5602220979
 H        -4.6917508231        1.4262057572        5.0133199982
 H        -5.9750808882        1.2485997428        6.0738863433
 H        -6.9787370202        4.0316298123        2.2147286300
 H        -6.0502562946        5.4099650099        2.1021325112
 H        -8.4142263976        6.6041180492        2.7784384812
 H        -9.0805231946        5.1354034291        2.1316643336
 H        -8.4330313277        4.9268093826       -2.2667662834
 H        -7.3004239163        6.3020668937       -2.1204138268
 H        -7.6663952353        6.1081070180       -4.5468902749
 H        -9.0066406248        7.2760935923       -4.3113518256
 H       -13.2164008219        7.4844439694       -6.1616093227
 H       -12.7470737597        6.4259979172       -7.4052422058
 H       -11.6954317662        7.7697715011       -6.9029796068
 H        -8.4611092104        5.8691272318       -6.9621219613
 H        -9.3707947857        7.3471967160       -6.3881436953
 H        -9.8461467245        6.4173182792       -7.8216613508
 H        -9.5847401893        3.4649169202       -6.4408771694
 H       -10.9279241425        4.0789496561       -7.6019574631
 H       -11.1798165549        3.3980542898       -5.9539228683
 H       -10.9283589418        6.6918107781        0.7188730890
 H       -10.9033242464        8.2692670907        0.0136560058
 H       -10.2909941146        7.9653920007        1.5979136214
 H        -8.4257593977        9.1140377973       -0.8989186873
 H        -7.0283797991        8.1384813778       -0.5949290449
 H        -7.9042399112        9.0148990770        0.7468091371
 H        -7.3873915016        4.7196521038        6.4739828427
 H        -5.6409034199        5.0615567808        6.8380081128
 H        -6.2476841367        3.4139766471        7.0346458021
 H        -4.2496851175        3.8340762500        3.7256696278
 H        -4.0902085645        3.2091284706        5.4697155432
 H        -4.1619722809        5.0271623960        5.1449458137
 H       -10.1418336842       -2.1452441474        4.2941273294
 H       -10.4552997441       -1.4419675015        2.7748855388
 H       -10.2991632795       -0.3528598252        4.1905949222
 H        -7.7678117864       -2.9401768018        4.2721224588
 H        -6.8684040563       -2.6615318917        2.6976739663
 H        -8.5702381101       -3.2272392826        2.6866081360
 H       -11.2469740793       -1.2265484835       -1.7013498129
 H       -11.0558824969       -0.7306541004       -0.0951672366
 H        -9.5987805566       -0.9959058976       -1.1698249390
 H       -10.6136305646        2.1514624767       -3.3838088109
 H       -10.8034024268        0.4810169293       -3.5611282188
 H        -9.2735093053        1.0730021243       -3.0935474872
 H       -13.8395135546        4.5056100771        1.2109347962
 H       -15.3350859768        3.9850403608        2.1049866837
 H       -15.2215155295        5.6692401337        1.4787952556
 H       -17.2102825142        4.0766688202       -1.2395513207
 H       -17.0579389937        5.7635381069       -0.4358342048
 H       -17.5515014752        4.3473713300        0.5595548932
 Na      -11.5700383902        4.3931166487       -2.4788355651
