117

 C       -15.1343717829        4.7713629082       -2.5865648918
 C       -14.5833488490        4.5822375325       -1.1681142136
 O       -13.3526972325        4.7399278627       -0.9846585949
 C       -15.4190073056        4.0979897368       -0.0315047590
 C       -15.2259361758        2.5638339915       -0.2262648695
 O       -16.0304720389        1.9482425592       -0.9059727513
 C       -13.9885698807        1.9680601068        0.3422682786
 C       -13.4022329907        0.7714535157       -0.5271393912
 C       -12.4044308077        1.4499187139       -1.5385278102
 O       -12.8319419411        2.3847916781       -2.1946680306
 C       -10.9495367091        0.9333729059       -1.6866163566
 C       -10.0493987405        1.9394959550       -0.6596933259
 O       -10.2535528529        3.1105806762       -0.8860915636
 C        -8.8920422934        1.6197567181        0.4384876181
 C        -9.2794531406        0.8182951068        1.7093975692
 C        -8.2296838070       -0.2322642736        2.1002552565
 O        -7.2643562176       -0.4706321583        1.3559185324
 C        -8.4600883078       -1.0442673400        3.3740308742
 C        -7.5825825833       -0.3702378221        4.5357324986
 O        -8.1447356751       -0.2405479879        5.6463128954
 C        -6.1140226816        0.0385628001        4.2645036521
 C        -5.7466628471        1.2745758882        5.0648387032
 C        -6.5376224652        2.4764377798        4.6192807604
 O        -7.5918231349        2.4427909635        3.9787818157
 C        -5.9783212711        4.0004075154        4.9433557685
 C        -6.8100332826        5.0433694719        4.0422917986
 O        -7.3991917072        5.9888680481        4.5437940518
 C        -6.9053077220        4.8925373408        2.4741088514
 C        -8.1719019076        5.6710653242        2.0217104014
 C        -8.0567892213        6.1726899999        0.5669705586
 O        -7.0807043400        5.8530862218       -0.0653186364
 C        -8.9794497563        7.1879505769       -0.1299485907
 C        -9.4361841754        6.5790445278       -1.4834275207
 O       -10.6085788971        6.5897300094       -1.7061239576
 C        -8.3210076167        6.0997269977       -2.4330444955
 C        -8.6161421569        6.2476935022       -3.9054850491
 C        -9.4802099803        5.1685484089       -4.5450703071
 O        -9.5898696044        4.1384026949       -3.9411203531
 C       -10.2704982567        5.3983770832       -5.9169206464
 C       -11.7204096723        5.9469436880       -5.6370398710
 O       -12.3908980927        5.5401335561       -4.7177562749
 C       -12.3116141722        6.9460376998       -6.6436600981
 C        -9.4730831258        6.3667302711       -6.7836512932
 C       -10.5646777211        4.0620992043       -6.6596783597
 C       -10.2786400770        7.5434341060        0.7297390554
 C        -8.1614074280        8.4326343459       -0.2095181296
 C        -6.3450310008        4.3450257456        6.4168358240
 C        -4.4901471202        4.1690024308        4.6691908624
 C        -9.9395193024       -1.1277973227        3.8173262145
 C        -7.9332998026       -2.4531997869        3.3513451728
 C       -10.6750187426       -0.5010941990       -1.1593588523
 C       -10.4763590441        1.0840966374       -3.1705594878
 C       -15.0250357121        4.6201276597        1.4096383081
 C       -16.9052253369        4.5122487217       -0.2034390977
 H       -15.8207503771        3.9951009554       -2.8403278641
 H       -14.3422535736        4.7633702391       -3.4486885308
 H       -15.5448100961        5.8162958319       -2.6698299965
 H       -14.2345501273        1.6488138326        1.3344207599
 H       -13.2472971319        2.7326991517        0.3942332708
 H       -14.2437835493        0.2085336106       -0.9699030479
 H       -12.7941854915        0.1701403599        0.1659641006
 H        -8.5465506120        2.6478867513        0.7382106918
 H        -8.1093895242        1.1963680001       -0.1449114061
 H       -10.3194675885        0.4791865220        1.6868188909
 H        -9.2507017658        1.5967320186        2.5307317903
 H        -5.9579494276        0.1445237405        3.1978699970
 H        -5.4330926033       -0.8532009025        4.5541391238
 H        -4.6344122937        1.5053273781        5.0084928794
 H        -5.8588658755        1.0817650672        6.1364981389
 H        -6.8747720267        3.8964221791        2.0812073032
 H        -6.0179869363        5.2702230972        2.0264817652
 H        -8.2070604004        6.5321992238        2.6521681759
 H        -9.0589392903        5.1084046235        2.2414119308
 H        -8.0040189795        5.0754030889       -2.1802868600
 H        -7.3807465825        6.6664113676       -2.2291999076
 H        -7.6546374114        6.3213953520       -4.4404544224
 H        -9.1867430449        7.1371914618       -4.1545355284
 H       -13.3348921983        7.1370210750       -6.3302270346
 H       -12.3681966363        6.4664891781       -7.5876233454
 H       -11.8683897795        7.9554740629       -6.6706950107
 H        -8.4352183663        6.0364293128       -6.8143815481
 H        -9.5852786718        7.4067890534       -6.4007513479
 H        -9.7985303334        6.4235413223       -7.8324231910
 H        -9.8427954311        3.2458037982       -6.4891972305
 H       -10.7519916149        4.2246672512       -7.7183701795
 H       -11.4938918424        3.6115862391       -6.2905819449
 H       -10.8000018789        6.6236190602        0.9925491920
 H       -10.9463638131        8.1465135843        0.2373225774
 H        -9.9599873265        7.9892496738        1.6585268293
 H        -8.7975348030        9.1036567171       -0.7810959805
 H        -7.2100013754        8.2872716648       -0.6625334534
 H        -8.0255856879        8.8700050100        0.7692932054
 H        -7.3694414591        4.7819721259        6.3818823989
 H        -5.6184759201        4.9904067098        6.8773761193
 H        -6.3446171828        3.4438706796        7.1205281631
 H        -4.2366725134        3.8281113518        3.6668467348
 H        -3.8778232185        3.6565322244        5.4264479092
 H        -4.2458015298        5.2651996274        4.7771495344
 H       -10.1148711766       -1.5972895453        4.7583857084
 H       -10.4480639653       -1.7614355011        3.0946371829
 H       -10.3248778629       -0.1384428754        3.8457960579
 H        -7.6193249021       -2.7466358801        4.3275110572
 H        -7.1395602758       -2.5204852034        2.5895990256
 H        -8.8230668445       -3.0838992720        3.0426406843
 H       -11.1093859860       -1.4032103318       -1.5745757796
 H       -10.9465358416       -0.5808820031       -0.1204865162
 H        -9.5835139431       -0.6877113718       -1.2188793605
 H       -10.6883353900        2.0568169964       -3.6106163061
 H       -10.9397545223        0.3881143981       -3.8271865186
 H        -9.3916268812        0.9411183168       -3.3081213855
 H       -13.9851260732        4.6285849306        1.5896132190
 H       -15.5532443661        3.9157361713        2.1170327481
 H       -15.4604870717        5.5667967845        1.4373462522
 H       -17.3699851284        4.0812339277       -1.1172879677
 H       -16.9249227235        5.5858381573       -0.2030242830
 H       -17.3988828509        4.2194690183        0.7565056413
 Na      -11.6196495951        4.3187106390       -2.4958766824
