117

 C       -15.2998429898        4.5578303322       -2.5744274248
 C       -14.7514102227        4.6435577479       -1.1387603296
 O       -13.6843827147        5.1320580391       -0.8785036200
 C       -15.4821600009        3.9214599020        0.1112328813
 C       -15.2640917288        2.3902632989       -0.0739233572
 O       -16.0599296142        1.8039655492       -0.8227226143
 C       -14.0535435092        1.7114005898        0.5684381309
 C       -13.4032529624        0.7613986843       -0.5104687488
 C       -12.4644916053        1.4230573550       -1.5350367968
 O       -12.7467709341        2.4882496895       -2.1360179960
 C       -10.9970449275        0.8270837651       -1.6738944356
 C       -10.0090147077        1.7265690718       -0.8435436572
 O       -10.0739434498        2.9337372555       -0.9142821883
 C        -8.9602668646        1.0906361856       -0.0028288994
 C        -9.4430938553        0.7771913576        1.3927765408
 C        -8.3423828798       -0.0405848788        2.1903337822
 O        -7.3940986216       -0.3957227845        1.4937602623
 C        -8.5820107721       -0.6652905842        3.6413566566
 C        -7.6047695305        0.0046945724        4.6381593838
 O        -7.9836193771        0.2177375459        5.8158667610
 C        -6.0858602348        0.1326404094        4.3477625905
 C        -5.5674901261        1.4501043771        4.9555476363
 C        -6.4714564951        2.5650331229        4.5894806902
 O        -7.5519038402        2.3479922498        4.0464218441
 C        -5.9986371247        4.0775644947        4.8759767894
 C        -6.8806481789        5.0895490870        3.9950823022
 O        -7.4788439042        5.9605863310        4.6064993843
 C        -6.9001889253        4.8637886242        2.4907862996
 C        -8.1138933956        5.5061694056        1.7921064134
 C        -7.7476920864        6.2360015843        0.3994794181
 O        -6.6412521297        6.2282916153       -0.1429124647
 C        -8.8823637990        7.0920998490       -0.1561042729
 C        -9.3584175475        6.5043017609       -1.5191138933
 O       -10.5554896623        6.4764111648       -1.6398824093
 C        -8.3558898964        6.1677341852       -2.5770392803
 C        -8.8629434256        6.4030549798       -3.9872279122
 C        -9.4611831907        5.1417315201       -4.6029863947
 O        -9.5526538741        4.0485164685       -4.0451633189
 C       -10.1502621180        5.3209523185       -6.0805333691
 C       -11.6826587892        5.7363601333       -5.7049257201
 O       -12.2335965118        5.2994587819       -4.7394770703
 C       -12.4933190010        6.8449791889       -6.5592806877
 C        -9.4087715766        6.3814941216       -6.8387862874
 C       -10.0836655294        3.9748096533       -6.8504171474
 C       -10.1296222244        7.1099438387        0.8054494761
 C        -8.4449016527        8.5389657078       -0.4043997785
 C        -6.0588874973        4.3651471802        6.3969344570
 C        -4.5361540474        4.2203563852        4.3972015601
 C       -10.0284642981       -0.6528075369        4.2026284756
 C        -8.1784153399       -2.1204127067        3.5878514838
 C       -10.9613861071       -0.6429440858       -1.1683143596
 C       -10.4732654256        1.0745710284       -3.0711755539
 C       -14.9615756501        4.4863919736        1.4863484385
 C       -17.0432558200        4.2631412568        0.0746024748
 H       -15.4313243054        3.5514539461       -2.7778264908
 H       -14.4930072288        4.9153779175       -3.2482831513
 H       -16.1067614405        5.2118512016       -2.8480295213
 H       -14.3661219401        1.0773338785        1.4251488838
 H       -13.2827605706        2.5013917171        0.7807828424
 H       -14.2636909964        0.4038607811       -1.1014882989
 H       -12.9171745508       -0.0273609584       -0.0152029053
 H        -8.1351221506        1.7834350341        0.1196059445
 H        -8.4639517801        0.2299308632       -0.5093302385
 H       -10.3424634765        0.2043458760        1.4365870287
 H        -9.7423541474        1.7337990263        1.8865418593
 H        -5.9266720251        0.1606345361        3.2671064094
 H        -5.5293078085       -0.6605176601        4.8282708553
 H        -4.4943244098        1.5521763858        4.7270065320
 H        -5.6331313189        1.4222674183        6.0185665861
 H        -6.7753621258        3.8335468449        2.2549305016
 H        -5.9221911568        5.2201985832        1.9693284452
 H        -8.6089717309        6.2625218713        2.4795334467
 H        -8.8983808710        4.7675384081        1.6222661390
 H        -8.1252110621        5.0701409675       -2.3530927065
 H        -7.4116411931        6.6577904521       -2.3396850009
 H        -8.0964806980        6.6705157289       -4.7274485839
 H        -9.6885324181        7.1197439095       -4.0860025223
 H       -13.5579109226        6.6271358908       -6.5378507745
 H       -12.2156670831        6.8761035993       -7.5720722974
 H       -12.4925260662        7.8283518890       -6.0243536207
 H        -8.3820270630        6.1319298838       -6.9658374054
 H        -9.5247661301        7.3815469971       -6.3726722476
 H        -9.8484645201        6.5622347862       -7.7880838338
 H        -9.0739625406        3.8119118029       -7.2589036320
 H       -10.7071136406        4.0270231785       -7.7773848953
 H       -10.4410989296        3.0887568627       -6.3582132131
 H       -10.4423177116        6.0335356488        0.8669205719
 H       -11.0060561602        7.5539559915        0.3315483333
 H        -9.9635035967        7.4972750807        1.8003684512
 H        -9.3644752674        9.0433467952       -0.6086988308
 H        -7.6570512417        8.7261768549       -1.1581238087
 H        -8.0084786147        8.8911100793        0.5894395620
 H        -6.9042439956        3.8107832875        6.7348623831
 H        -6.0329852395        5.3714995226        6.6612140496
 H        -5.2242428664        3.9182735148        6.9744363422
 H        -4.5009199769        3.9410457092        3.3748933490
 H        -3.8514164419        3.6717877933        5.0611012702
 H        -4.1930061085        5.2645606799        4.5658717553
 H        -9.9173875509       -0.9607301226        5.2438242237
 H       -10.6656294699       -1.4465609986        3.8168411073
 H       -10.4080816342        0.4102725032        4.1603708176
 H        -8.4507650036       -2.3719969578        4.5900237620
 H        -7.1442778795       -2.2346784168        3.4986796778
 H        -8.7551651413       -2.7103427008        2.8630362590
 H       -11.8118722928       -1.2170817285       -1.5454058145
 H       -11.0040078581       -0.6907158178       -0.0768235326
 H       -10.0128420472       -1.2094962692       -1.3910267834
 H       -10.3468882591        2.1085401382       -3.4352125113
 H       -11.0513835358        0.5550944463       -3.7889989312
 H        -9.4519614337        0.6370216146       -3.1677056583
 H       -13.8654901752        4.4226177431        1.5698735915
 H       -15.3359107402        3.8158021114        2.3192910122
 H       -15.2224632416        5.5395135797        1.4602703960
 H       -17.4887243416        3.6323437635       -0.6855911354
 H       -17.1559419943        5.3259984680       -0.1143697363
 H       -17.4762746164        3.9600542275        1.0154904523
 Na      -11.5888149776        4.5653728716       -2.5474086857
