117

 C       -15.2891709535        4.6214050146       -2.4371378768
 C       -14.5725091342        4.7016472079       -1.1054218728
 O       -13.3454018720        4.9249460740       -0.9328434403
 C       -15.4894383775        4.0851638656        0.0171194866
 C       -15.3073802632        2.5174304263       -0.2291193733
 O       -16.0485681664        1.8451316778       -0.8979224326
 C       -13.9709927973        1.9215216543        0.3915268695
 C       -13.4244364551        0.8169290263       -0.5742444210
 C       -12.4058654925        1.4406709648       -1.5539314211
 O       -12.7849136224        2.3924751443       -2.1516577148
 C       -10.8886015395        0.9176221523       -1.6292435415
 C       -10.0614491723        1.9450291839       -0.7684349484
 O       -10.1889780913        3.1630608191       -0.8229388622
 C        -8.9253123537        1.4468266564        0.2211714701
 C        -9.3391303522        0.8390894350        1.6534863667
 C        -8.2981115465       -0.2335796320        2.1265746515
 O        -7.2950363959       -0.5282795222        1.5047228172
 C        -8.5353197197       -0.9835849277        3.5001280784
 C        -7.6051837971       -0.2417471525        4.6289354861
 O        -8.0287781635       -0.0384184180        5.7171371541
 C        -6.1616205273        0.1078967711        4.2623032349
 C        -5.7145603723        1.3689092732        5.0875244723
 C        -6.4657380746        2.6124133671        4.5873194124
 O        -7.5607744257        2.4227545328        4.0721905330
 C        -6.0194286062        4.0532502135        4.8873074080
 C        -6.8013575093        5.0173046532        4.0474588569
 O        -7.3918278880        5.9314335258        4.5215725177
 C        -6.9016812986        4.8336121218        2.5057445288
 C        -8.0934864314        5.5778231434        1.9472924516
 C        -7.8344031729        6.1197044014        0.5853354771
 O        -6.8528932777        5.9255010342       -0.0540250285
 C        -9.0137572463        7.1444613438       -0.0453628576
 C        -9.4447877229        6.6847243305       -1.4867168755
 O       -10.6099164137        6.5607078228       -1.8764884833
 C        -8.3433943248        6.2005469434       -2.4970267525
 C        -8.7218455613        6.3763078619       -3.9346114663
 C        -9.5321478016        5.0749179349       -4.5808056375
 O        -9.6019544373        3.9880615514       -4.0789333613
 C       -10.2240291821        5.4234950153       -5.9301054660
 C       -11.6814661590        5.9003531903       -5.6261147692
 O       -12.3329854779        5.3558541279       -4.7381046612
 C       -12.2585487022        6.8644931389       -6.6358933824
 C        -9.4312713586        6.4353605341       -6.7943302915
 C       -10.4936399476        4.0706369604       -6.7178391872
 C       -10.2338104876        7.4115241125        0.8843147991
 C        -8.2882441430        8.5812427900       -0.2882131363
 C        -6.3112215983        4.2612953372        6.4549874618
 C        -4.4840402090        4.2651129296        4.5311312588
 C       -10.0027811125       -0.8700953747        3.9726592065
 C        -7.9118992373       -2.4614701735        3.3509378841
 C       -10.7271385870       -0.5332933558       -1.2329533178
 C       -10.5683083094        0.9451530096       -3.1385120188
 C       -14.9973072576        4.5725701274        1.4325739150
 C       -17.0509474294        4.3754077730       -0.1626292422
 H       -16.0069647398        3.8094637246       -2.3425399260
 H       -14.7124823629        4.3943650379       -3.3464180247
 H       -15.7149946040        5.5789767572       -2.6511380112
 H       -14.2112822212        1.4240592716        1.3456257301
 H       -13.2300743043        2.6969458440        0.4872201730
 H       -14.3420740915        0.5133603750       -1.0788674886
 H       -12.9700328657       -0.0194312043        0.0376837464
 H        -8.2507313083        2.3423629209        0.3574917376
 H        -8.3287327705        0.7643248301       -0.3796012761
 H       -10.3122351309        0.2956661209        1.5435538425
 H        -9.5651658911        1.6105863938        2.3584525476
 H        -5.9256139815        0.1103312419        3.1987897994
 H        -5.5297181281       -0.7111249364        4.7110338990
 H        -4.6233901414        1.4242863658        5.0484646154
 H        -5.8937688860        1.1519043233        6.1785104177
 H        -6.9668208916        3.7708240421        2.1019513777
 H        -5.9989327705        5.0809378121        2.0345120820
 H        -8.3399516709        6.4416611287        2.5625136441
 H        -9.0178889841        4.9268002444        1.9909064159
 H        -8.1104057988        5.2110681594       -2.3002948835
 H        -7.3960413179        6.6999028263       -2.3309376268
 H        -7.7969343992        6.4148439457       -4.5058048114
 H        -9.2965098683        7.2500427048       -4.1944404602
 H       -13.3692344023        6.9256660170       -6.6797678395
 H       -11.8812369043        6.5745021087       -7.6725172491
 H       -11.9936149925        7.8702355322       -6.3247234267
 H        -8.3854026642        6.1081750909       -6.9382747498
 H        -9.5255228294        7.4460802133       -6.4940380778
 H        -9.8839339065        6.4406597181       -7.8048941320
 H        -9.7582090555        3.2977034001       -6.6193286726
 H       -10.6204187237        4.3032685828       -7.7148035435
 H       -11.4373893712        3.5913396853       -6.4622525318
 H       -10.8283864188        6.5516042868        1.2093320717
 H       -10.9173139208        8.0578879346        0.3525693766
 H        -9.8189862233        7.9447395908        1.7996485534
 H        -9.0374953395        9.3152495415       -0.7407348364
 H        -7.4811239168        8.3719805364       -0.9827719079
 H        -7.8280845613        8.9750271202        0.5755994344
 H        -7.3567999767        4.5451297707        6.6243658453
 H        -5.5723622971        5.0177840445        6.7591706088
 H        -6.0468739172        3.4546544854        7.0773530182
 H        -4.2720521981        3.7964057179        3.5841452187
 H        -3.8572293490        3.9438303075        5.2848578837
 H        -4.3085738892        5.2948740929        4.4650034906
 H       -10.0041753605       -0.9638316577        5.0597999080
 H       -10.5906486640       -1.7324066900        3.6531634145
 H       -10.3822028186        0.0652180254        3.7263725467
 H        -7.4999807651       -2.8729697298        4.2637169736
 H        -7.1344907940       -2.2942950706        2.5630225581
 H        -8.6833589408       -3.0846147065        2.9486210519
 H       -11.3039393196       -1.1709162946       -1.8582821750
 H       -10.9621651711       -0.8288150367       -0.2440568307
 H        -9.7453034060       -0.8164449243       -1.4112125531
 H       -10.7706770116        1.9284774773       -3.5167590132
 H       -11.1714654604        0.2462276670       -3.7722533610
 H        -9.5414283814        0.7672575613       -3.3933080113
 H       -13.9215787642        4.4726142897        1.5084496430
 H       -15.4225859316        3.9227316262        2.1582827490
 H       -15.2790150385        5.6140413162        1.5067340653
 H       -17.4639950255        3.8956476524       -1.0268696736
 H       -17.1538762897        5.4299717065       -0.1987467434
 H       -17.5296234230        4.0426611818        0.7510740072
 Na      -11.6236101374        4.3838139368       -2.5802030918
