117

 C       -14.8693147561        5.2025488024       -2.6035758172
 C       -14.3056904058        4.6270560777       -1.3416655202
 O       -13.0801473051        4.6247468215       -0.9834093543
 C       -15.3187649083        4.1552125289       -0.2435418870
 C       -15.2242594371        2.6110353344       -0.2846305125
 O       -16.0059836583        1.9560770560       -0.9637175749
 C       -14.0651948885        1.9570228266        0.4452866862
 C       -13.3129832671        0.8797311509       -0.3341981320
 C       -12.3418603512        1.3863823062       -1.4839534495
 O       -12.8267604532        2.0091664949       -2.3906497411
 C       -10.7904184510        1.0225166748       -1.3164497263
 C       -10.0115613268        2.0994850119       -0.4724724963
 O       -10.2551527560        3.2944516815       -0.6451237671
 C        -8.9074649218        1.6412688331        0.4159840964
 C        -9.4386836851        0.8146549285        1.6097377843
 C        -8.2896390512       -0.1812922347        1.9247823469
 O        -7.3874385640       -0.4213708392        1.1147187348
 C        -8.3977230771       -1.1545901111        3.0956388596
 C        -7.6914203596       -0.5622832395        4.3448658386
 O        -8.3120915227       -0.5390350467        5.4335178364
 C        -6.2568958053       -0.0168009757        4.1866195801
 C        -6.0443391565        1.1777720633        5.0425909197
 C        -6.7120302883        2.4869451211        4.4944611513
 O        -7.6646488980        2.4038380145        3.7204068862
 C        -6.2323826755        3.9115924119        4.9917017658
 C        -6.9384961886        5.0986039671        4.3150348222
 O        -7.2106824828        6.1400498740        4.8769069749
 C        -7.1241543622        5.0429093675        2.7429125987
 C        -8.2408369710        5.9100715856        2.1766349584
 C        -8.0929703709        6.0181453172        0.6881774564
 O        -7.4108253052        5.3210460814        0.0024259732
 C        -8.8881029147        7.1092441317       -0.0626547619
 C        -9.3626404406        6.4645513937       -1.4743904477
 O       -10.5325302306        6.3566940023       -1.7205494066
 C        -8.2175467392        6.1873635861       -2.5266246654
 C        -8.6626227222        6.4417560953       -3.9486373991
 C        -9.5865566637        5.2168141886       -4.4309668571
 O        -9.7851930598        4.2607371705       -3.7491719088
 C       -10.3096859816        5.4117027319       -5.7955424481
 C       -11.7217104980        6.1023957780       -5.4394506892
 O       -12.2157859289        5.9706494124       -4.3453012938
 C       -12.4430230573        6.9831463322       -6.4429432627
 C        -9.5367250901        6.3276977601       -6.8585400721
 C       -10.6591743533        4.0047334912       -6.3885518252
 C       -10.1300306773        7.6438833433        0.6408256768
 C        -8.0616001555        8.4198875560       -0.4187736817
 C        -6.4875921816        3.9358890040        6.4892251523
 C        -4.7358872250        4.0813081968        4.6459412850
 C        -9.8553006997       -1.5425554700        3.4287544433
 C        -7.5948029775       -2.4015842423        2.6575608305
 C       -10.5759470540       -0.4256843557       -0.8645658674
 C       -10.0990000390        1.1232461013       -2.6809355804
 C       -14.9008043905        4.8367124757        1.1838239935
 C       -16.7797570255        4.5636934676       -0.5438464420
 H       -15.0836295250        4.5058084703       -3.3348742206
 H       -14.0500067122        5.8642663566       -3.0100449951
 H       -15.6908684175        5.8183327736       -2.3723611143
 H       -14.4636967733        1.5156743010        1.4310231700
 H       -13.3671690843        2.7172621557        0.8545612109
 H       -14.0178272388        0.2510880894       -0.8628668413
 H       -12.8037391654        0.2359971907        0.4324778276
 H        -8.5950770893        2.6331957305        0.8800578730
 H        -8.1100590788        1.0778802617       -0.1032587074
 H       -10.4054685944        0.3077023933        1.5194185772
 H        -9.4353686086        1.4750618804        2.4434656808
 H        -5.9017301366        0.0880817869        3.2013579878
 H        -5.6645620457       -0.8929663864        4.5207600520
 H        -4.9879155455        1.3926439595        5.1084225398
 H        -6.2530392696        0.8970401142        6.0837304936
 H        -7.2562620489        3.9738507507        2.3001010780
 H        -6.2071308821        5.3832930291        2.2449008319
 H        -8.1734904195        6.9245973253        2.6403300818
 H        -9.3002685542        5.4856420793        2.3572673932
 H        -7.8004672214        5.2558435193       -2.3612528095
 H        -7.4109786248        6.8979390477       -2.3369187424
 H        -7.8028996815        6.4723305105       -4.6267221766
 H        -9.1612230364        7.4046806155       -4.0336132809
 H       -13.1313745899        7.6907807288       -5.9060095779
 H       -13.1212580358        6.3276325079       -7.0559381874
 H       -11.7124794679        7.4940459628       -7.0943274116
 H        -8.5669944158        5.8440430224       -6.9922005908
 H        -9.3533695952        7.2948595846       -6.4605592178
 H        -9.9730803831        6.3340976423       -7.8589353165
 H        -9.8015566927        3.4856821421       -6.7995033544
 H       -11.4539676600        3.9635887177       -7.0482124192
 H       -10.8619656679        3.3503311603       -5.5265410562
 H       -10.9243221464        6.8239045472        0.7146793465
 H       -10.5315236100        8.4825594642        0.1004829491
 H        -9.9780629532        8.0129108287        1.7293405557
 H        -8.6501844246        9.1911007503       -1.0478473084
 H        -7.1313232249        8.2059807513       -0.9641682224
 H        -7.8508701752        8.9253479614        0.5189195241
 H        -7.4632553419        3.5123682109        6.6932985957
 H        -6.5411976805        4.9508017372        6.8566724437
 H        -5.7077441430        3.4033544181        6.9864194648
 H        -4.5127383656        3.6726814499        3.6716206769
 H        -4.2127897469        3.4837849516        5.3297579567
 H        -4.4107556313        5.1108856699        4.6663045253
 H        -9.8410102222       -2.4775003126        4.0479837118
 H       -10.5475933867       -1.6771177493        2.5345302740
 H       -10.2570813768       -0.7894054488        4.0679264812
 H        -7.8021652766       -3.2173431613        3.2731947304
 H        -6.5482301102       -2.0809279832        2.7002692204
 H        -7.7965048469       -2.5987727821        1.6211293171
 H       -10.8737618906       -1.1221369636       -1.6392776126
 H       -11.1332507395       -0.7597475667       -0.0129111144
 H        -9.5517975466       -0.6948615384       -0.7422118299
 H       -10.3443236426        2.0861570863       -3.1130079890
 H       -10.4657539834        0.4211754524       -3.4489611881
 H        -9.0198681782        1.0300024489       -2.6960797381
 H       -13.8208276520        4.8235279765        1.3245705652
 H       -15.5165552283        4.3294080500        1.9635040696
 H       -15.3060992465        5.8487710369        1.1616448965
 H       -17.0996340064        4.1028475216       -1.4724783892
 H       -16.8207165076        5.6105929577       -0.6292414755
 H       -17.3949766703        4.2682164445        0.3107541720
 Na      -11.6380688175        4.4477573833       -2.5615818219
