117

 C       -14.9462818296        4.0374240708       -2.6948838087
 C       -14.4156116342        4.2406451677       -1.2190227013
 O       -13.3844432664        4.7874439564       -1.0687308056
 C       -15.2097773600        3.7054773598        0.0380678824
 C       -15.0992792208        2.1722788801       -0.0908655473
 O       -15.8894393034        1.5613077319       -0.8071389562
 C       -14.1100918588        1.3381440881        0.7290673565
 C       -13.3864040408        0.2103440768       -0.0516450713
 C       -12.6326565446        0.8782284483       -1.1823064891
 O       -13.1420730489        1.8084078130       -1.7881267218
 C       -11.2845683997        0.3167511710       -1.7279970862
 C       -10.2068723503        1.2581402309       -0.9977406020
 O       -10.3482468754        2.4809578648       -1.1245362438
 C        -9.1662813677        0.7012009688        0.0441920771
 C        -9.5861621778        0.9236131721        1.5374145847
 C        -8.5980393366        0.3020540635        2.4745579349
 O        -7.6544369073       -0.3909664668        2.1037655986
 C        -9.0615957076        0.2863923993        3.9539885981
 C        -7.8605461441        0.6908842671        4.8825271441
 O        -8.1248362609        1.3636873710        5.9105360624
 C        -6.4878189452        0.3495266833        4.4769277251
 C        -5.4738835554        1.4717347688        4.7744881771
 C        -5.8527950864        2.7203007407        3.9186947732
 O        -6.4300836432        2.5644100645        2.8690274834
 C        -5.5012073048        4.1806960997        4.4006822901
 C        -6.6173264462        5.1166461026        3.7649202438
 O        -7.5122699832        5.6037187208        4.3961436663
 C        -6.4136073960        5.5126204031        2.2707500487
 C        -7.6762696642        6.4462797293        1.8480729107
 C        -7.5316837049        7.1185219992        0.5111375770
 O        -6.4319300589        7.3576314831        0.0065815296
 C        -8.8849818661        7.5362457695       -0.2565231787
 C        -9.2808844882        6.4379702775       -1.4081284135
 O       -10.3592369760        5.9355260459       -1.4079546016
 C        -8.1985200866        6.1499443094       -2.5121286294
 C        -8.6675789291        6.3297806842       -3.9432684697
 C        -9.6105040607        5.1875041194       -4.3697229279
 O        -9.6347114856        4.1262839933       -3.7866124331
 C       -10.3693415251        5.2491236444       -5.7868567441
 C       -11.9072500851        4.9635149742       -5.4849141117
 O       -12.3285885079        4.7506829783       -4.3840144842
 C       -12.8109879093        4.9531553939       -6.6989878768
 C       -10.1833182237        6.6098013220       -6.5148725529
 C        -9.8933507054        4.0848560798       -6.6924731656
 C       -10.1249817846        7.6772337365        0.7253559740
 C        -8.5847434695        8.8456635037       -0.9683814901
 C        -5.6263165554        4.4148447896        5.9487010400
 C        -4.1252730752        4.5374363906        3.8977538446
 C       -10.2492255728        1.1926298927        4.3004405072
 C        -9.4477920858       -1.2281345288        4.1805221075
 C       -11.1291896961       -1.1730757985       -1.3093820173
 C       -11.2969274381        0.5193325391       -3.3236706576
 C       -14.4918841323        4.2031923904        1.2884297875
 C       -16.6933732992        4.1880736740       -0.0646493417
 H       -15.9388113727        3.7038004737       -2.7232029636
 H       -14.2305988397        3.3833024780       -3.2174666985
 H       -14.9917951412        5.0136977629       -3.1090137737
 H       -14.8325777333        0.8081865289        1.3917029323
 H       -13.4386262643        1.8254889142        1.4445498081
 H       -14.1164582854       -0.5227108041       -0.3321255312
 H       -12.7328285830       -0.3626827876        0.6186715289
 H        -8.3167355361        1.2902269627       -0.1863776601
 H        -8.9699280909       -0.3723613186       -0.0231493260
 H       -10.5255278035        0.2973549185        1.6653508019
 H        -9.8360988847        1.9413889155        1.6795232968
 H        -6.4546588341        0.0604545319        3.3847360096
 H        -6.1820821517       -0.5062781561        5.0292721271
 H        -4.5089146830        1.1000190595        4.5385156472
 H        -5.5079741601        1.6704727436        5.8657556039
 H        -6.4780866154        4.6234977337        1.6164487507
 H        -5.5430731707        6.1427318491        2.0975877025
 H        -7.8006597234        7.2726937901        2.5802685718
 H        -8.6071645871        5.8079685743        1.9134157895
 H        -7.8682651678        5.0510954707       -2.3492487193
 H        -7.3496861198        6.8207747215       -2.2923517835
 H        -7.8430681636        6.1167677695       -4.6344874486
 H        -9.1400033039        7.2685864864       -4.2457252876
 H       -13.6419973595        5.5914527741       -6.3828545213
 H       -13.1560760151        3.9547295538       -6.9439864209
 H       -12.2842507817        5.2682417567       -7.6359362409
 H        -9.1923903174        6.7185025487       -6.9589451014
 H       -10.4222673387        7.4859309854       -5.9137520097
 H       -10.8399622311        6.6317719214       -7.3792153243
 H        -9.1492106558        4.4707154319       -7.3361899657
 H       -10.7070905690        3.7185564745       -7.3505065691
 H        -9.4076081645        3.3046841069       -6.2107141736
 H       -10.4376158102        6.6840877167        1.1385435599
 H       -10.9537629665        8.1882547591        0.1481369045
 H        -9.8269129611        8.3014933135        1.5632695527
 H        -9.4413253329        9.0584944688       -1.5858884166
 H        -7.6819345161        8.7139554335       -1.5980898872
 H        -8.6144632573        9.6410559067       -0.1766602917
 H        -4.9430679388        3.8235888401        6.4960510060
 H        -6.5739045008        4.1305160425        6.3875030114
 H        -5.3359679449        5.4263121200        6.1447936784
 H        -4.0107335386        4.1968393954        2.9019085873
 H        -3.3778571153        4.0562893536        4.5645316358
 H        -3.9328390472        5.6030230525        3.9355266476
 H       -10.5456977461        1.1519710195        5.3533379549
 H       -11.0876295127        0.7706169565        3.7452448136
 H       -10.1335779016        2.2889087684        3.9944727895
 H        -9.5394204861       -1.2900426916        5.2850096991
 H        -8.8591110708       -1.9876650180        3.7330515360
 H       -10.4496648281       -1.3693279811        3.8605235433
 H       -11.9765756314       -1.7102837511       -1.6314371089
 H       -11.0100355578       -1.2561970424       -0.2524964641
 H       -10.1934442056       -1.4808115191       -1.7532456464
 H       -11.7550642228        1.4762520355       -3.6409520178
 H       -11.9600245050       -0.2501441592       -3.7381376189
 H       -10.3390354016        0.3249660201       -3.7559241521
 H       -13.3815432195        4.2250885454        1.1539667110
 H       -14.7466099405        3.7041515465        2.2112138756
 H       -14.7274555917        5.2523619996        1.5749762196
 H       -17.0309326721        3.8224115784       -0.9880655514
 H       -16.7136304519        5.2732338128       -0.0716999385
 H       -17.2533138538        3.8109989013        0.7192628224
 Na      -11.4836940886        4.1219809853       -2.3838415746
