117

 C       -14.9421366310        3.9920569943       -2.4626180858
 C       -14.3918457256        4.1368656223       -1.0503638459
 O       -13.2596518763        4.6155842837       -0.8516410679
 C       -15.3336956050        3.6756499808        0.1157988153
 C       -15.3538993636        2.0524743635       -0.1632756994
 O       -16.1754486579        1.4986304774       -0.8563734964
 C       -14.2985889989        1.3403396081        0.5581566105
 C       -13.4448714351        0.3724410399       -0.3366943559
 C       -12.3533865120        1.0631700627       -1.1216784469
 O       -12.5166662623        2.1751573977       -1.6078775075
 C       -11.0454488912        0.2098908646       -1.5550968679
 C        -9.8123265152        1.0676675795       -1.0020916897
 O        -9.6399139507        2.1379852808       -1.4969478263
 C        -8.9272294630        0.4237071961        0.0362237667
 C        -9.5745843345        0.8209286598        1.4920104834
 C        -9.0142929578       -0.0404998355        2.6784814106
 O        -8.4021123572       -1.0624788780        2.4607816043
 C        -9.2452108927        0.4566040477        4.1617901995
 C        -7.9838221205        1.2421185492        4.7007185428
 O        -8.0083446450        2.1171286958        5.4969362187
 C        -6.5641338333        0.7144549204        4.1781712232
 C        -5.5568383905        1.7482308447        4.6232780736
 C        -5.7011479492        2.9341023597        3.6871185060
 O        -6.1654497967        2.7652530605        2.5420086045
 C        -5.3699081986        4.4017743324        4.1736250149
 C        -6.5856656202        5.3467344080        3.6185990636
 O        -7.5403616527        5.6691443390        4.3282991600
 C        -6.3874096150        5.9745223670        2.3247764236
 C        -7.7651257025        6.5959044248        1.8067940695
 C        -7.6240534318        7.1456138179        0.4211533526
 O        -6.5771148248        7.0879170686       -0.1897064713
 C        -8.8797560004        7.6480272377       -0.3435586891
 C        -9.3598385320        6.4076186134       -1.1810421233
 O       -10.3411967810        5.7165298493       -0.8562751195
 C        -8.5220596510        5.9577414690       -2.3834406482
 C        -9.2617682322        6.2870494384       -3.6508692954
 C        -9.7237051713        5.0522912715       -4.3997972300
 O        -9.5580860982        3.9138537499       -3.9150454309
 C       -10.4517575614        5.1115077983       -5.7363015754
 C       -11.8650982150        4.5171237732       -5.5517370531
 O       -12.2521729313        4.1901898707       -4.4512138237
 C       -12.8354296934        4.4247845397       -6.7751723991
 C       -10.6231059760        6.6111985130       -6.1920681738
 C        -9.7096040123        4.2005432167       -6.8110893098
 C        -9.9892838099        8.2216125973        0.5648298409
 C        -8.3017587844        8.7543488655       -1.3494560999
 C        -5.2547096031        4.6207227768        5.6871438648
 C        -4.0062318232        4.6928504748        3.4502084137
 C       -10.4386580337        1.4165364425        4.2427379737
 C        -9.5334599676       -0.9003614969        4.9495112583
 C       -11.1393735086       -1.2644242458       -1.0652386395
 C       -11.0541330864        0.1680501199       -3.1495421880
 C       -14.9549388311        4.1861686185        1.4946822247
 C       -16.7869574605        4.1573152681       -0.0886307125
 H       -15.9644678903        4.4090980521       -2.4277139534
 H       -14.9675698625        2.9457829790       -2.6129478261
 H       -14.3765973521        4.5029067670       -3.1962396714
 H       -14.6800005522        0.8437621126        1.4226111899
 H       -13.6377355772        2.0302106837        1.0914201024
 H       -14.0086232916       -0.2602399866       -1.0520594197
 H       -12.9934668426       -0.3286320669        0.3390782390
 H        -7.9294869144        0.8568754893        0.0826468062
 H        -8.8970460157       -0.6324504496       -0.0710175000
 H       -10.6421758892        0.6358667847        1.3859625538
 H        -9.3667106787        1.9153634953        1.5803056131
 H        -6.5379259471        0.7471290776        3.0911353488
 H        -6.3007343240       -0.3420765481        4.3294960985
 H        -4.5176904278        1.4963584772        4.4594386175
 H        -5.5940593557        2.0028392855        5.6733662841
 H        -6.0914750187        5.2409738212        1.6248999373
 H        -5.5837693183        6.7786837172        2.3981575275
 H        -8.0064755049        7.3955083877        2.5805401438
 H        -8.5339883946        5.8052145362        1.8915831132
 H        -8.3023978238        4.8451529718       -2.1852775093
 H        -7.4876263303        6.4458955506       -2.4020369032
 H        -8.6828667684        6.8758540310       -4.3767350177
 H       -10.1898337701        6.8706946071       -3.4424891508
 H       -13.4132151209        5.3968539057       -6.7970746612
 H       -13.5820967516        3.6532461331       -6.4755728053
 H       -12.3602050469        4.1489758062       -7.7072496100
 H        -9.7088787225        7.1399240946       -6.0155054942
 H       -11.4816663272        7.0846787506       -5.6693820010
 H       -10.9249162277        6.7031875112       -7.2221822274
 H        -8.6758259020        4.0530924268       -6.5094389161
 H        -9.7508692266        4.5382693598       -7.7716979865
 H       -10.1914314552        3.2289833582       -6.7511172098
 H       -10.2458939364        7.4090364683        1.2844530393
 H       -10.8862781142        8.4409960717        0.0200063631
 H        -9.5447929768        9.0541716324        1.2119674269
 H        -9.1046772520        9.1029645244       -2.0174117591
 H        -7.4326133530        8.3056843434       -1.8404464135
 H        -7.8144580631        9.4753491955       -0.6997830534
 H        -4.3883131380        4.1184312433        6.0640340559
 H        -6.1009498039        4.2790907706        6.1840929409
 H        -5.2743640020        5.6679066524        5.9694527762
 H        -4.1234224412        4.3665171946        2.4373314588
 H        -3.2176152181        4.2179872951        3.9164776481
 H        -3.7247503271        5.7021008605        3.5298437701
 H       -10.5294222305        1.9193642417        5.2113774425
 H       -11.4343342366        0.9744435200        4.0802285274
 H       -10.2461105272        2.1865911886        3.5347823246
 H        -9.7837370107       -0.7584187667        5.9608933824
 H        -8.6075651825       -1.4801529901        4.8851153665
 H       -10.3318412529       -1.5318463554        4.4636652853
 H       -12.0677081969       -1.7349580077       -1.3269205936
 H       -11.0998334396       -1.2277574021       -0.0178803993
 H       -10.3690641753       -1.8586825891       -1.5067330240
 H       -11.1067255475        1.1888884939       -3.5006307054
 H       -11.9708518572       -0.3157084124       -3.4174148899
 H       -10.2161464578       -0.4050238526       -3.6306041602
 H       -13.9879637779        3.9527995805        1.9032177269
 H       -15.5408849452        3.7265884324        2.3487431409
 H       -15.0250093854        5.2560045689        1.4995514882
 H       -17.3323189425        3.5673205020       -0.7938192774
 H       -16.7661793427        5.1603396282       -0.3244979021
 H       -17.2612571363        4.0316808367        0.8697173130
 Na      -11.2881796537        4.0712838809       -2.1806174515
