117

 C       -14.9607677860        4.0544125703       -2.4841617767
 C       -14.4321918280        4.1619647025       -1.0469384691
 O       -13.2791242725        4.5612235790       -0.7928212170
 C       -15.4012002267        3.6706048463        0.1048537056
 C       -15.4114765462        2.1012766994       -0.1082266601
 O       -16.2075501875        1.6250585381       -0.8687565845
 C       -14.2223261414        1.3578403481        0.6297317980
 C       -13.4197209859        0.3927799798       -0.2628545691
 C       -12.3709928002        1.0224562370       -1.1297077424
 O       -12.4905255296        2.1344897523       -1.6173845323
 C       -11.0673552140        0.2304266829       -1.5006858382
 C        -9.7115895529        0.9794854411       -1.0994349538
 O        -9.4838572516        2.1189958825       -1.4525819208
 C        -8.8435561108        0.3623290636        0.0477927464
 C        -9.4884612777        0.8045912677        1.4604018377
 C        -9.0775888735       -0.0413362336        2.7181087519
 O        -8.5500126390       -1.1468780131        2.6289643336
 C        -9.3048158018        0.4782556894        4.1393072947
 C        -7.9371912323        1.1814703805        4.6235606958
 O        -8.1047226766        2.2035504053        5.2975797412
 C        -6.5852215246        0.7828384744        4.1542250393
 C        -5.5741286378        1.8372041147        4.5387924696
 C        -5.7542875848        3.0930817412        3.6232111076
 O        -6.1433325980        2.9284680266        2.5141639937
 C        -5.3637973335        4.4999062928        4.1035507073
 C        -6.5133201405        5.4448398224        3.6367754847
 O        -7.4781795774        5.5710424254        4.3585036459
 C        -6.4185627309        6.0357263135        2.2215465622
 C        -7.7503408136        6.6239749174        1.7579392756
 C        -7.5894823748        7.0584540255        0.3488073010
 O        -6.4995009076        7.0170859849       -0.2666619420
 C        -8.8671537786        7.6143037899       -0.3477811693
 C        -9.3294801399        6.3819798599       -1.1202739608
 O       -10.3189035080        5.7747974581       -0.7465962475
 C        -8.6095426033        5.8319755235       -2.3369999573
 C        -9.2928763171        6.2791726186       -3.6144498394
 C        -9.7670154430        4.9478169228       -4.4145420372
 O        -9.5146626553        3.8974984182       -3.9386271046
 C       -10.5200034172        5.0728470596       -5.7427177390
 C       -11.9619683643        4.4511233878       -5.5286356897
 O       -12.2679182237        4.0254320007       -4.4559017718
 C       -12.8066284175        4.3708434086       -6.7771084396
 C       -10.7251041301        6.5650864170       -6.2464346252
 C        -9.6659441710        4.3129920477       -6.7916625564
 C        -9.9447964861        8.2368283677        0.5845295196
 C        -8.3740993167        8.7686844647       -1.3122695072
 C        -5.2025437639        4.5506625506        5.6403395530
 C        -4.0415637560        4.8289219274        3.3522041177
 C       -10.5199385028        1.3743772278        4.3405533991
 C        -9.5267195862       -0.7357405418        5.1381864801
 C       -11.0657992273       -1.2319255019       -0.9919999242
 C       -11.0919169528        0.2305463757       -3.0897898051
 C       -14.9802443834        4.0049707750        1.5018218730
 C       -16.8427591011        4.1065030612       -0.1919868349
 H       -15.8641584838        4.7438109144       -2.6093624668
 H       -15.2756145040        3.0341124878       -2.4918986428
 H       -14.1896716188        4.2911896009       -3.2503437019
 H       -14.6545491414        0.7895465072        1.4133030977
 H       -13.6172094239        2.0192920557        1.1775047158
 H       -14.1770780487        0.0544214599       -0.9948766029
 H       -13.1102349869       -0.5208584714        0.2662468697
 H        -7.8264322003        0.7944634652        0.0846073910
 H        -8.7540251487       -0.7043532855        0.0880564161
 H       -10.5456082307        0.6656371264        1.3164181253
 H        -9.2657622520        1.9028793036        1.6299974502
 H        -6.6661769298        0.5850104433        3.1265358499
 H        -6.2295356119       -0.2340190409        4.5211169659
 H        -4.5037972904        1.5170575071        4.4343433471
 H        -5.6572930271        1.9942375855        5.5944174507
 H        -6.1360677263        5.3188627162        1.4334544371
 H        -5.6652440204        6.7912398896        2.1960689413
 H        -7.9991082780        7.4159952925        2.4417007211
 H        -8.4968575330        5.8466358354        1.8368046648
 H        -8.5121396771        4.7251533508       -2.1874340749
 H        -7.5410044770        6.2350890929       -2.3905655794
 H        -8.6035681657        6.8433687899       -4.2825097032
 H       -10.1460397089        6.9582393661       -3.4146861604
 H       -13.1856970945        5.3543334142       -6.9910743843
 H       -13.6549479635        3.7105352255       -6.5418901108
 H       -12.2114791083        3.9901745526       -7.5715230347
 H        -9.7445172481        7.0205929022       -6.3950358774
 H       -11.3382481656        7.1657208617       -5.6227586251
 H       -11.2591393287        6.5090416198       -7.1968758716
 H        -8.5870972826        4.4546075854       -6.6494852278
 H        -9.9262415840        4.6268662705       -7.8155592569
 H        -9.9578875364        3.2655975799       -6.6886864574
 H       -10.3423696174        7.5482703546        1.2774983247
 H       -10.8027389944        8.5819283390       -0.0687091855
 H        -9.4669988113        9.0309877016        1.1216105300
 H        -9.1875146992        9.0784990210       -2.0420377356
 H        -7.4766304185        8.3435210690       -1.7605078729
 H        -7.9391425066        9.4993618522       -0.6878630522
 H        -4.1891521474        4.3212181913        5.8691705867
 H        -5.8953421794        3.9587711769        6.2406967507
 H        -5.4518192285        5.4871866852        5.9940990904
 H        -4.0615322949        4.3718833739        2.3291048694
 H        -3.1979333293        4.4395024773        3.9196735930
 H        -3.8676683459        5.9098932388        3.3470090635
 H       -10.5794014145        1.6762032564        5.4136940534
 H       -11.5425835440        0.8879213225        4.1472702314
 H       -10.4486936614        2.2881026259        3.7608729967
 H        -9.4892981834       -0.5076412634        6.1914873459
 H        -8.7502089692       -1.4712142993        4.9386145118
 H       -10.4463778707       -1.2116222333        4.8918841122
 H       -11.9292381699       -1.7669490295       -1.4441604373
 H       -11.1822828749       -1.2453363322        0.1146151704
 H       -10.2494736405       -1.7889891299       -1.3851049613
 H       -11.1326185112        1.2730474038       -3.3787335138
 H       -11.9870623072       -0.3248721084       -3.4625160914
 H       -10.2102376745       -0.2408258429       -3.5082478566
 H       -13.9030863643        3.8146640727        1.6752491949
 H       -15.3330078019        3.4033572242        2.2938106821
 H       -15.1193206478        5.0832065714        1.7401765651
 H       -17.2225154714        3.6440965909       -1.0619466918
 H       -16.8979749530        5.1688879977       -0.2262463655
 H       -17.4389081717        3.7637758264        0.6310039251
 Na      -11.1591949311        4.0570200948       -2.1745795458
