117

 C       -14.5466872783        4.7968479620       -2.2815224801
 C       -14.2847891824        4.0802505477       -0.8852812405
 O       -13.1296001073        4.1014538051       -0.5515826403
 C       -15.4080980455        3.4772469784       -0.0088250927
 C       -15.2427884821        1.9229166415       -0.2200307004
 O       -16.0521287335        1.2780276919       -0.8696444693
 C       -14.1425200291        1.2715598886        0.5821477896
 C       -13.4136739424        0.1069112374       -0.1870162838
 C       -12.3929179357        0.6427277743       -1.1170394660
 O       -12.6512251811        1.5870596913       -1.8005160739
 C       -10.9010186737        0.0281902553       -1.3262171938
 C       -10.0212153221        1.0667443459       -0.4495515395
 O        -9.8448420925        2.2497660624       -0.8058904034
 C        -9.3397917092        0.6346440046        0.8593976457
 C       -10.2815963234        0.9727581552        2.0350548808
 C        -9.9542155415        0.1302959218        3.3263005198
 O       -10.2511313055       -1.0481352267        3.3087769886
 C        -9.1797750230        0.6862987672        4.5184848177
 C        -7.9404057065        1.7753917853        4.1681487523
 O        -8.3081757893        2.8997235347        3.9839686671
 C        -6.4907619325        1.3186991793        4.0952862590
 C        -5.6421526846        2.4499685370        4.6469811006
 C        -5.4184349989        3.5417544758        3.5204859579
 O        -5.6902669782        3.2157378107        2.3371845274
 C        -4.9861576317        4.9202464524        3.8755213707
 C        -5.8948830077        6.0967323557        3.2149922219
 O        -6.4174660618        6.8736768535        4.0019030502
 C        -6.1039569926        6.2065349392        1.7188053495
 C        -7.4941296452        6.8221236018        1.4454963455
 C        -7.6906154183        7.2165601505        0.0237018447
 O        -6.7265760981        7.5134540533       -0.6553936059
 C        -9.0837618113        7.4341313667       -0.6556452616
 C        -9.2380018362        6.2546590321       -1.6785548518
 O       -10.3226089180        5.6963330963       -1.6912850997
 C        -8.2119648475        5.8630290268       -2.8801749663
 C        -8.8659096552        5.8880594514       -4.2508770726
 C        -9.7625682699        4.6717938467       -4.3784752047
 O        -9.5840958186        3.6945336115       -3.6918412085
 C       -10.8641356375        4.6800894065       -5.6370440308
 C       -11.9815924639        3.6098121793       -5.3273263294
 O       -12.3192836778        3.2526612883       -4.1695756079
 C       -12.7270596627        3.1491357200       -6.5642214821
 C       -11.6311285000        6.0319349569       -5.8341975447
 C        -9.9812595269        4.3854789957       -6.8474258761
 C       -10.2456984318        7.4531693113        0.3323161634
 C        -9.0341532079        8.8111418376       -1.3499332110
 C        -4.9887099622        5.1556373769        5.4557560165
 C        -3.5120617873        4.9801914533        3.1911885855
 C       -10.2246840411        1.6258882526        5.3886923172
 C        -8.7480836813       -0.4815412345        5.4274406754
 C       -10.7267017826       -1.4160921018       -0.8542841807
 C       -10.4006670683        0.2045344943       -2.8022060301
 C       -15.2403966687        3.8835172145        1.5250354468
 C       -16.8175332247        3.8686490472       -0.4498022761
 H       -13.7049554394        4.5925488741       -2.9036282112
 H       -14.4763841139        5.9198152371       -2.1325414807
 H       -15.5036524294        4.5397525779       -2.7749217822
 H       -14.6541270013        0.9345731048        1.5631374828
 H       -13.3332666221        2.0292101948        0.8332350536
 H       -14.1378728670       -0.4694563127       -0.7496305812
 H       -12.8499646442       -0.5922212051        0.4803135961
 H        -8.3817971535        1.1389546699        0.8498625198
 H        -9.1477568798       -0.4765768478        0.8807351491
 H       -11.3461055048        0.8068613261        1.7439684958
 H       -10.2105367373        2.0452940442        2.2102042434
 H        -6.1502642611        1.3005212156        3.0670149714
 H        -6.1764465958        0.3575778986        4.6077220132
 H        -4.6461019355        2.0135191826        4.9146449790
 H        -6.0843848326        2.8956127244        5.5198533475
 H        -5.8428408568        5.3021219257        1.0504100611
 H        -5.3985019650        6.9155381407        1.3494662372
 H        -7.7164985676        7.6923501984        2.0647331245
 H        -8.3062704418        6.0882271853        1.7214701307
 H        -7.8565856327        4.8601430034       -2.7580914397
 H        -7.3850774425        6.4996435382       -2.8626935355
 H        -8.1294528738        5.8133083138       -5.0482933493
 H        -9.3743147481        6.8188728965       -4.3638574618
 H       -13.5233042621        3.8292433356       -6.6986946212
 H       -13.1302728649        2.1756969511       -6.3905049088
 H       -12.0240867951        3.1239953566       -7.4121465522
 H       -10.8723318984        6.7620587611       -6.0565742296
 H       -12.3445577124        6.3003779571       -5.0879004274
 H       -12.2427350044        5.9331062323       -6.7160223857
 H        -9.3276993904        5.2714957288       -7.0187373360
 H       -10.6292011781        4.1937354498       -7.7350757437
 H        -9.2569473268        3.5520830047       -6.6257208664
 H       -10.2635700268        6.6583458814        1.0693549931
 H       -11.1605804740        7.4336381698       -0.1639783404
 H       -10.2692892719        8.3199355335        0.9567468107
 H        -9.9426936277        9.0236995153       -1.8687704240
 H        -8.2327889735        8.8413612103       -2.0934187929
 H        -8.8087101613        9.5875107681       -0.5596294602
 H        -4.1327053942        4.5838366116        5.8662915097
 H        -5.8937736393        4.6873908679        5.8694070171
 H        -5.0882187328        6.2350235670        5.7379415984
 H        -3.5831389579        4.4805207795        2.2163444939
 H        -2.7632128418        4.5353469951        3.9421878933
 H        -3.0508163210        6.0089256081        3.0900120578
 H       -10.0106358821        1.6321082891        6.4659247376
 H       -11.1686665588        1.1036902976        5.3182246085
 H       -10.2642626823        2.7088285618        4.9941298344
 H        -8.4354186610       -0.0034443659        6.3752015821
 H        -8.0189365785       -1.1673821524        5.0704980131
 H        -9.5634942233       -1.0610389207        5.7805853191
 H       -11.3468400799       -2.1455327666       -1.4593538624
 H       -11.0510740587       -1.6401879362        0.1956544618
 H        -9.6705385852       -1.8487502315       -1.0479206715
 H       -10.6066374481        1.2276947311       -3.1626869309
 H       -11.0361996988       -0.4916002405       -3.3771458818
 H        -9.4243137904       -0.1882966735       -2.8489833103
 H       -14.2954416500        3.5873521655        2.0269199519
 H       -16.0766010268        3.6108383845        2.1551908295
 H       -15.1784248902        4.9849772902        1.5538188992
 H       -17.1549212548        3.1518762336       -1.2190473981
 H       -16.8607514069        4.8516102380       -0.9858393632
 H       -17.5909901341        3.8177045659        0.3056532499
 Na      -11.3313702894        3.5494377819       -1.9246466793
