117

 C       -14.4903593842        4.7037657392       -2.4080911446
 C       -14.1298659856        4.2023848088       -1.0048202752
 O       -13.0068136683        4.2156360610       -0.6295091633
 C       -15.2176511263        3.5194478082       -0.0568563248
 C       -14.9666829588        1.9772573377       -0.2129532328
 O       -15.4446602585        1.3620166171       -1.1726116264
 C       -14.0191295747        1.4023532575        0.8656686639
 C       -13.2585983075        0.2220650901        0.1117862785
 C       -12.4332802965        0.7212753574       -1.0761160157
 O       -12.7972658198        1.6339825222       -1.7465412171
 C       -11.0043395180        0.1048757485       -1.3585164468
 C        -9.9932517971        1.0520828149       -0.5864150135
 O        -9.7987025356        2.2122983793       -0.9972043216
 C        -9.4192602814        0.6451760563        0.7095815728
 C       -10.2777448551        0.9692754245        1.9643239618
 C        -9.8938385399        0.0584196511        3.1724794377
 O        -9.9932285730       -1.1642616152        3.0548505126
 C        -9.2920406014        0.6710576198        4.4315585617
 C        -8.0150512667        1.6740898692        4.1601843293
 O        -8.2906904027        2.8306772206        4.0793262017
 C        -6.6338708393        1.0900056150        4.0632597270
 C        -5.5596289299        2.1445389568        4.2774665845
 C        -5.4956965431        3.3856031421        3.3921629020
 O        -5.8215518706        3.2674332493        2.1911909744
 C        -5.0601426708        4.8472095796        3.9884701172
 C        -6.0585253852        5.9627037181        3.4838770236
 O        -6.5784180522        6.7379507061        4.2676328381
 C        -6.2665672150        6.0803099362        2.0176090031
 C        -7.5248101706        6.8516636721        1.5600961415
 C        -7.5406246210        7.2364637517        0.1026430189
 O        -6.5833774173        7.3815802651       -0.6507860757
 C        -8.9927841327        7.4992519871       -0.5777603277
 C        -9.2795729433        6.3331673115       -1.4944114595
 O       -10.3319664285        5.6852008964       -1.2954356177
 C        -8.3261895630        6.0789361491       -2.7456355817
 C        -8.9400993950        5.8950477557       -4.1205948746
 C        -9.7849812679        4.6521925067       -4.3168503945
 O        -9.5678411610        3.6209582031       -3.7082899664
 C       -10.8672240875        4.7353745877       -5.5377408376
 C       -12.0505343141        3.8243513103       -5.2829974828
 O       -12.4287708698        3.4528159687       -4.1758491804
 C       -12.8543902272        3.3409763632       -6.5270432944
 C       -11.3607166722        6.1778139850       -5.8252639529
 C       -10.1030561778        4.3030455680       -6.8837546719
 C       -10.0921239129        7.6094808478        0.5182301098
 C        -8.9829081227        8.8258687522       -1.3922041999
 C        -4.9634095612        4.9319696004        5.5908526459
 C        -3.6909268962        5.2012416281        3.3723871669
 C       -10.5737343398        1.3943232492        5.1453700200
 C        -8.8097728297       -0.4642527669        5.3789301850
 C       -10.9398821660       -1.4187192010       -1.0006421883
 C       -10.7086265655        0.2879140287       -2.8814218317
 C       -15.1248799406        4.0708120954        1.3581046696
 C       -16.6810501080        3.6106272494       -0.4653033575
 H       -13.7316528941        5.4371236117       -2.6524717567
 H       -15.4178690840        5.2088754952       -2.4059908932
 H       -14.4792736278        3.8865747412       -3.1054801709
 H       -14.5221819756        0.9798742464        1.7017615205
 H       -13.3085114979        2.1526263346        1.1046426322
 H       -13.9602591754       -0.5401783858       -0.1594731530
 H       -12.5018188686       -0.1675436043        0.8233915879
 H        -8.4859958308        1.1274578150        0.8118514719
 H        -9.1735371156       -0.4261504953        0.7072605242
 H       -11.3868881890        0.8567873314        1.7824810183
 H       -10.2536142338        2.0150126391        2.1258330504
 H        -6.5034280300        0.7080562795        3.0328509100
 H        -6.4168497348        0.2572834098        4.6944716077
 H        -4.6117974395        1.6998119420        4.0482084696
 H        -5.5668096070        2.4436275034        5.3328648274
 H        -6.2702493373        5.0704215937        1.5814517399
 H        -5.4270429031        6.4467525737        1.4409111013
 H        -7.8208966318        7.7615586373        2.1439719973
 H        -8.4382514437        6.2332223971        1.7093229969
 H        -7.6965489126        5.0991678571       -2.5473947451
 H        -7.6052689488        6.9191931150       -2.8246067694
 H        -8.0812817632        5.8536926278       -4.8157739770
 H        -9.4847754363        6.8245566215       -4.3653919768
 H       -12.6539942617        3.9845068290       -7.4090360752
 H       -13.9232855479        3.3133064778       -6.2353814112
 H       -12.3980341240        2.3494872960       -6.7842412124
 H       -10.5800888765        6.8510874620       -6.1879793113
 H       -11.8044291347        6.5542992125       -4.8514690696
 H       -12.1654733950        6.1428690130       -6.5729501256
 H        -9.1992522554        4.8521931784       -6.9648801790
 H       -10.7339691607        4.4341980541       -7.6844035462
 H        -9.8347442778        3.2598599049       -6.7813864000
 H       -10.4430599585        6.5903027790        0.9003448187
 H       -10.9964348288        8.0472355603        0.1484115853
 H        -9.7758734648        8.1463512266        1.4810949039
 H        -9.8637467672        8.9429318808       -1.9504129375
 H        -8.1552928470        8.8268412408       -2.1002029902
 H        -9.0117608200        9.6597275788       -0.6506703401
 H        -4.5222489331        4.0319757106        6.0186217270
 H        -5.8632262167        5.0548355522        6.1082417810
 H        -4.1622409579        5.7014866566        5.6992192408
 H        -3.7095977534        5.3380232340        2.3295983821
 H        -2.9831549020        4.4434426882        3.6487240195
 H        -3.4129418018        6.1352911480        3.7981939623
 H       -10.1914434583        2.1183479918        5.8216240787
 H       -11.1967803870        0.7064603329        5.6455793850
 H       -11.1530081325        1.9304809625        4.4052006542
 H        -8.4909335194       -0.1360720750        6.3746343330
 H        -8.0692307280       -1.1630879058        4.9856516384
 H        -9.7176491071       -1.0612029996        5.6562307445
 H       -11.6484484853       -2.0067516636       -1.4784830117
 H       -11.1074022305       -1.5994600176       -0.0024185995
 H        -9.9518062225       -1.8086278949       -1.1230634316
 H       -10.6120282798        1.3706966386       -3.0459348289
 H       -11.5005720798       -0.1347726525       -3.4765244523
 H        -9.7371393558       -0.1885542685       -3.0662543481
 H       -14.1497484692        4.4290014423        1.6203520057
 H       -15.4843872559        3.3700110685        2.1544252056
 H       -15.7165529525        4.9411545023        1.5187335226
 H       -16.8073467850        3.5029738117       -1.5496640205
 H       -17.2316691252        4.5101518895       -0.1999940878
 H       -17.1736564336        2.8223747652        0.0879414339
 Na      -11.3672676999        3.5285795458       -2.1158644598
