117

 C       -14.6186375920        4.5374847092       -2.1726758210
 C       -14.3991849532        3.9147512379       -0.7909701781
 O       -13.2159876598        3.7962211483       -0.3916293129
 C       -15.5517694629        3.4096291930        0.1577338710
 C       -15.5278224844        1.8357811730       -0.1382705704
 O       -16.4093504856        1.2147001908       -0.7000070130
 C       -14.3202174871        1.0455558265        0.4340273142
 C       -13.5928324265        0.0268498899       -0.4872692134
 C       -12.3865183930        0.6209642254       -1.2513294000
 O       -12.6089914506        1.5871244112       -1.9807740011
 C       -10.8820825903        0.1256797583       -1.0760042877
 C       -10.0319587096        1.1205044785       -0.2510235732
 O        -9.9883361379        2.3177481887       -0.4643307380
 C        -9.2733183181        0.5208223870        1.0253799759
 C       -10.0998366698        1.0457787905        2.2486937134
 C        -9.8142506072        0.1780150608        3.4494832524
 O       -10.3115709369       -0.9253454192        3.4881863694
 C        -9.0771416090        0.8294850367        4.7397221030
 C        -7.9759987173        1.8385086424        4.2966169756
 O        -8.4154379736        2.7978632979        3.6652913040
 C        -6.5085138949        1.5474706124        4.4167726695
 C        -5.6338224390        2.7513582994        4.7310760767
 C        -5.3650309220        3.6885882010        3.5328128477
 O        -5.6118071470        3.3053292371        2.4060658686
 C        -4.8249605871        5.0826689621        3.7325185181
 C        -5.8456385905        6.1238631534        3.0989649005
 O        -6.4349434445        6.9736871561        3.7439339596
 C        -6.1154153544        6.0732345273        1.6007005855
 C        -7.5212146067        6.4357365139        1.2136767425
 C        -7.6314250751        7.1272367038       -0.1835085181
 O        -6.6898657332        7.4807540034       -0.8816108765
 C        -9.0805484171        7.3725480666       -0.6933725465
 C        -9.4213438350        6.3256303943       -1.8801206610
 O       -10.4990727449        5.8122693817       -1.7709642040
 C        -8.3474596973        5.9425582764       -2.9185570637
 C        -8.9292890414        5.9125111900       -4.3564305812
 C        -9.6771118540        4.6571227054       -4.5570563077
 O        -9.4761782996        3.6497472634       -3.9005948894
 C       -10.7434947446        4.6834278539       -5.6496765467
 C       -11.8447435850        3.5754460574       -5.4591547187
 O       -12.0789037890        3.2621062196       -4.2753584157
 C       -12.5443178023        2.7920001650       -6.5687870532
 C       -11.5183223042        5.9801105865       -5.6758182066
 C        -9.9520390856        4.4191070145       -6.9840227358
 C       -10.1044726023        7.4626144486        0.3844762679
 C        -9.1765578896        8.6717970376       -1.5172548781
 C        -4.6865563078        5.3559670453        5.2994323523
 C        -3.4720002264        5.1224878245        2.9814211282
 C       -10.2511276934        1.6299365850        5.5649022680
 C        -8.5887354105       -0.3116403871        5.6563878955
 C       -10.8363106174       -1.2956730754       -0.5513379434
 C       -10.2214286989        0.1377492597       -2.5252987625
 C       -15.2853480813        3.8024217355        1.6239890865
 C       -16.9091339611        4.0294333126       -0.3900274415
 H       -13.7908893665        4.2545109143       -2.7257059869
 H       -14.4653131147        5.6673113107       -2.0734269407
 H       -15.5705351550        4.2938479961       -2.6673141518
 H       -14.6034573991        0.5589941894        1.3472646165
 H       -13.6103561611        1.7700253307        0.7741716878
 H       -14.2578682906       -0.3706932777       -1.2782444278
 H       -13.3129271561       -0.8511923942        0.0848763437
 H        -8.2444644392        0.9354122500        1.0140144727
 H        -9.2806414865       -0.5692891711        1.0249274873
 H       -11.1311200914        0.8029808812        2.0698333638
 H        -9.9559870572        2.1410951467        2.3646182624
 H        -6.2264793555        1.1017113392        3.4907610479
 H        -6.2905201278        0.8758911861        5.3090581389
 H        -4.5894844229        2.4170465574        4.9892442776
 H        -6.0275860742        3.2077525789        5.6239011708
 H        -5.7941079536        5.1021665675        1.1296333681
 H        -5.4235147492        6.8233568321        1.2119344347
 H        -7.7580169298        7.1158534877        1.9928715366
 H        -8.1916450350        5.5945761675        1.3541417556
 H        -7.9799858676        4.9226529168       -2.6982194157
 H        -7.4556189455        6.6095809760       -2.8131791854
 H        -8.0725393566        6.0661954730       -5.0709513887
 H        -9.5804701090        6.8041651895       -4.4671876055
 H       -13.5916032114        2.6804910374       -6.2962670928
 H       -12.0290699022        1.8393100972       -6.7040946764
 H       -12.3516732331        3.3323830492       -7.5380722780
 H       -10.8510780052        6.8073844735       -6.0184752103
 H       -11.8445450829        6.1674025092       -4.6700251643
 H       -12.4900525996        5.9776504647       -6.2030472783
 H        -9.0234240209        4.9138990402       -6.9226583975
 H       -10.4284978383        4.8665331786       -7.8700613267
 H        -9.7567496339        3.3929410195       -7.1005223402
 H       -10.3620995353        6.5219948437        0.9011358692
 H       -11.0685054135        7.9317351279        0.0712877390
 H        -9.7433575551        8.0816350053        1.1821209633
 H        -9.9810881911        8.5648416767       -2.2641064975
 H        -8.2508900239        8.8333265838       -2.0665733504
 H        -9.2184849791        9.5757157719       -0.9193392851
 H        -4.3384965056        4.5018570319        5.8132551853
 H        -5.5510807841        5.8683229661        5.6830017151
 H        -4.0061337102        6.1357988143        5.4040206299
 H        -3.6660976101        5.1235608654        1.9740906756
 H        -2.8283184547        4.2706435566        3.2015466781
 H        -2.9125276696        5.9669438627        3.2644378046
 H        -9.8098517572        2.1013899733        6.4143841574
 H       -10.9418461090        0.9319397523        5.9310772207
 H       -10.6745687583        2.4553424292        4.9423483814
 H        -8.0420674246        0.1258119830        6.5540241816
 H        -7.9073636592       -1.0162857574        5.1756137214
 H        -9.3675331301       -0.8953521592        6.0710840401
 H       -11.5002152975       -1.8849171659       -1.1159788640
 H       -11.1153391802       -1.3222115507        0.4612471693
 H        -9.9089340954       -1.7951795496       -0.7007494644
 H       -10.3123383394        1.1482775698       -2.9334031310
 H       -10.6653145880       -0.6359626213       -3.1813385107
 H        -9.2540506529       -0.2019997649       -2.3158354461
 H       -14.2010879812        3.6496151904        1.8819700399
 H       -15.8150856100        3.1555337383        2.2734658258
 H       -15.6301809472        4.8600947554        1.8325511449
 H       -16.8822206302        4.3820321086       -1.3774498723
 H       -17.2111800108        4.8677460895        0.2417373961
 H       -17.7085643792        3.3585091407       -0.4306797217
 Na      -11.3664789415        3.6511889107       -2.1225749475
