117

 C       -14.6477329165        4.2334538625       -2.2176186156
 C       -14.3894694757        3.8681098142       -0.7539646959
 O       -13.1808925875        3.7228505962       -0.3872762683
 C       -15.5059353093        3.3296783655        0.1944135155
 C       -15.4960161966        1.6227370210       -0.0325410834
 O       -16.3497724141        1.1504858859       -0.7425970346
 C       -14.2599555490        0.8907948651        0.4393962830
 C       -13.7403560371       -0.0680084967       -0.6490804424
 C       -12.5392983427        0.6569210385       -1.3072655330
 O       -12.7269308161        1.6104304116       -2.1145486440
 C       -11.0854925642        0.2148353115       -0.9470499100
 C       -10.4291274810        1.2636625911       -0.1161926788
 O       -10.2318463783        2.3660142343       -0.5038360420
 C        -9.6988543326        0.9421968244        1.2958621534
 C       -10.6542949680        0.9501024879        2.5738668495
 C        -9.8805655164        0.1880333001        3.6879203726
 O        -9.8907762690       -1.0030172822        3.6368398626
 C        -9.0433152912        0.9465147586        4.7925702890
 C        -7.9245729962        1.9930136895        4.4369205383
 O        -8.3191235199        3.0479614942        3.9028471375
 C        -6.4745474805        1.7485769068        4.7155666568
 C        -5.7461774062        3.0679761000        4.9495120067
 C        -5.2950807069        3.7141088196        3.5167725264
 O        -5.4846597348        3.2111668447        2.4573236378
 C        -4.6741524144        5.1955580591        3.5772640451
 C        -5.8702697017        6.0373021589        2.9015977814
 O        -6.4879333202        6.8396077537        3.5741417923
 C        -6.0396902077        6.0057011946        1.4285776317
 C        -7.5459204016        6.3194961763        1.0599719891
 C        -7.6431022796        7.0841831077       -0.2101736883
 O        -6.7018360084        7.3718911276       -0.9218980942
 C        -9.0566104612        7.4852000393       -0.7383272036
 C        -9.3919549961        6.3452487637       -1.8011457013
 O       -10.4859275949        5.8712093753       -1.6674428039
 C        -8.4143882153        5.9555154009       -2.8875560857
 C        -8.8183386268        5.7996151905       -4.3560629557
 C        -9.6866059994        4.5510769245       -4.5872993731
 O        -9.4721068376        3.4684749986       -4.0007947155
 C       -10.7649647174        4.6155026692       -5.8214533314
 C       -11.7398124512        3.4739198393       -5.6369642250
 O       -12.2304700951        3.2867034127       -4.5023991533
 C       -12.2619727465        2.5708849017       -6.7281635036
 C       -11.5630592205        5.9747620660       -5.7421077960
 C        -9.9771312443        4.5047247580       -7.1353783611
 C       -10.2077779588        7.5041190802        0.2805879597
 C        -8.9064057999        8.8364734959       -1.3507374437
 C        -4.3520708476        5.8687804116        4.9076619585
 C        -3.4587072283        5.2214308873        2.6138166094
 C       -10.1416476511        1.8241052324        5.5167070018
 C        -8.3795993806       -0.1590426121        5.7735028839
 C       -11.1519132155       -1.2204689896       -0.3000078776
 C       -10.3240932191        0.0303799072       -2.2977784096
 C       -15.0027755059        3.5863506362        1.6625012348
 C       -16.8771374916        3.8052660187       -0.2505655262
 H       -13.8715732259        4.7850166092       -2.5709029391
 H       -15.6053357149        4.7658013271       -2.3765297937
 H       -14.7182634222        3.2733827833       -2.7037925742
 H       -14.3892760775        0.3059974594        1.3560867366
 H       -13.5348376465        1.6271339083        0.8566939164
 H       -14.4696285501       -0.1852767058       -1.4920054674
 H       -13.6196145466       -1.0675799234       -0.3094525709
 H        -8.9804741755        1.7796355419        1.4046915260
 H        -9.2331142873        0.0170001261        1.2210906056
 H       -11.5072930729        0.3022356142        2.3774195914
 H       -10.8720671911        1.9925886949        2.9613146716
 H        -5.9639061597        1.2563552303        3.8818547725
 H        -6.4293868538        1.2026022791        5.6382123043
 H        -4.8992438148        3.0127117466        5.6036608864
 H        -6.4214224920        3.8200991786        5.3906915014
 H        -5.7606709826        5.0087472114        1.1233743267
 H        -5.4277017617        6.8417674385        0.9416330510
 H        -7.7927114635        7.0586466502        1.9376393796
 H        -8.2033452793        5.4158787710        1.1486921215
 H        -8.0865326252        4.9655289420       -2.5370592593
 H        -7.4317932182        6.5225423731       -2.7830704609
 H        -7.8794621144        5.7794501026       -4.8540948708
 H        -9.2705378420        6.7414886859       -4.6580737015
 H       -12.5555712854        1.6326525301       -6.2474700055
 H       -11.6067130631        2.4550637447       -7.5762134771
 H       -13.1826565605        3.0379306612       -7.1176189954
 H       -10.9797584242        6.8840293463       -5.9654048011
 H       -12.0807280754        6.1167095616       -4.8221328366
 H       -12.3191255566        5.9454243037       -6.5411142313
 H        -9.5137321302        5.4309542300       -7.5087922956
 H       -10.6551662208        4.2383959682       -8.0352911096
 H        -9.3138341621        3.6782667495       -6.9923927767
 H       -10.3804101219        6.6477769161        0.9294649028
 H       -11.1963038490        7.5882557307       -0.3044607442
 H       -10.2348621923        8.3897512867        0.8606151964
 H        -9.9020710244        9.2775473224       -1.6226500014
 H        -8.3325068134        8.7688265375       -2.2521530181
 H        -8.3563265264        9.5135726375       -0.7679043667
 H        -3.2522111445        5.6953637173        5.1200292848
 H        -5.1008693556        5.4137312511        5.6814447524
 H        -4.5299467192        6.9448955221        4.9163108916
 H        -3.4711524668        4.4155703976        1.8668786888
 H        -2.5185059934        4.9260900653        3.1897327951
 H        -3.2856747683        6.2566950501        2.1892278520
 H        -9.6108292624        2.2700619158        6.3581150263
 H       -10.9872287337        1.2422128420        5.8818730239
 H       -10.4388104323        2.6610731415        4.8518861576
 H        -7.9976006467        0.2452063122        6.7354060934
 H        -7.4995760360       -0.7291826598        5.4077560525
 H        -9.1263796647       -0.8969875860        5.9342793683
 H       -11.7022908870       -1.8858256799       -1.0195630523
 H       -11.6026631491       -1.2710185691        0.7352200809
 H       -10.1465960534       -1.6770525362       -0.2149013006
 H       -10.2879875447        1.0487376346       -2.6697058334
 H       -11.0143886555       -0.5900758920       -2.8800820942
 H        -9.3499151082       -0.4470527038       -2.1574878684
 H       -14.0355248722        3.0963207169        1.8559602123
 H       -15.6808263818        3.2006042121        2.3613496372
 H       -14.9449428382        4.6814095215        1.7914671577
 H       -16.9563087402        3.8301489009       -1.3490251701
 H       -17.2028682986        4.8025550354        0.2181911894
 H       -17.6975706961        3.0715223599        0.0039745660
 Na      -11.2187691010        3.4956248134       -2.1488879073
