117

 C       -15.9212133344        3.3330580303       -2.5889094768
 C       -14.8220532787        3.4483277509       -1.5012637349
 O       -13.6780526705        3.9809296713       -1.6256306038
 C       -15.2123293244        3.0754192973       -0.0521533814
 C       -15.4191712306        1.5478022104       -0.0367280209
 O       -16.3369711560        1.0403681184       -0.5980293993
 C       -14.4473855277        0.6673194491        0.7685007274
 C       -13.5553560047       -0.2928870379       -0.0758407483
 C       -12.4687120965        0.4260248648       -0.8380526594
 O       -12.8316543984        1.3263325682       -1.6749217408
 C       -10.8575310144        0.2028962361       -0.6284649803
 C       -10.2831501848        1.4713798918        0.1332727871
 O       -10.4548034409        2.6269813856       -0.1949624719
 C        -9.2123233477        1.2283535562        1.3075511283
 C        -9.7170889174        1.8943349677        2.6309580869
 C        -8.9367923588        1.1858055678        3.8061996086
 O        -8.2748889134        0.2027933375        3.5479887914
 C        -8.8825288350        1.8339742773        5.2439242967
 C        -8.1967163445        3.2112867724        5.1128193193
 O        -8.7218596372        4.0420964271        4.4627287481
 C        -6.9413647062        3.4493281140        6.0445267857
 C        -5.9397565520        4.4608114778        5.4425051035
 C        -5.2267068849        3.8678511286        4.1560785657
 O        -5.0792144757        2.6912122468        3.9373218248
 C        -4.6172259075        4.9441999750        3.0062626501
 C        -5.8300415345        5.8376455618        2.5204678895
 O        -6.3756008474        6.5198828823        3.3580461328
 C        -6.3339949399        5.8336350243        1.0285814182
 C        -7.6441156577        6.5867681620        0.8062501643
 C        -7.7745139675        7.1730332972       -0.6236955557
 O        -6.7666638656        7.3743399108       -1.2941389789
 C        -9.2183781803        7.3679873267       -1.2674922608
 C        -9.5808591952        6.0325951749       -2.1128267407
 O       -10.6228137821        5.4029501978       -1.9857684736
 C        -8.4906379934        5.5032880628       -3.0583711588
 C        -8.9269414662        5.2460797363       -4.4390384387
 C        -9.9163047550        4.0308478032       -4.5922671488
 O        -9.8219742078        2.9809567369       -3.9485083647
 C       -11.0746608923        4.1710110863       -5.5917516773
 C       -12.0320298067        2.8701408230       -5.5789255389
 O       -12.4010357056        2.4267125428       -4.5105968359
 C       -12.4403051312        2.1600825398       -6.8518295118
 C       -11.9691230909        5.4394354559       -5.3107001876
 C       -10.5050989405        4.3689854882       -6.9787093638
 C       -10.4200170352        7.6319382927       -0.3014866817
 C        -9.1010163036        8.4705371289       -2.3706855465
 C        -3.6510169717        5.8539614071        3.6952571773
 C        -3.9711479224        4.0526369750        1.8235354911
 C       -10.3140443806        1.9761784236        5.8145160572
 C        -7.9441092977        0.8234848452        6.0940835883
 C       -10.5091946705       -1.1168654821        0.1101374599
 C       -10.2076589226        0.1791610554       -2.0024153578
 C       -13.9905005606        3.4531116104        0.8671204915
 C       -16.4171867144        3.8454183442        0.4986070993
 H       -15.4825954871        3.0896235064       -3.5944559446
 H       -16.2963410124        4.2773109783       -2.7149480633
 H       -16.6316389206        2.6134145802       -2.2507162737
 H       -15.0408998174        0.1124131745        1.4731234260
 H       -13.7026947817        1.2034998911        1.3659155822
 H       -14.1506061148       -0.8489628802       -0.8675066444
 H       -13.1811942069       -1.0716291342        0.5664427085
 H        -8.2890715111        1.6656947508        0.8779821326
 H        -9.0653157295        0.2089863473        1.4495085651
 H       -10.8056031038        1.8426154011        2.6842119936
 H        -9.6590719977        3.0158808401        2.6805937308
 H        -6.4024061511        2.4883795632        6.2539364758
 H        -7.3236304070        3.6966190530        6.9894533451
 H        -5.1100306574        4.5961469815        6.0917630445
 H        -6.3426981744        5.4448828050        5.1263001402
 H        -6.4301848412        4.8378948062        0.5636725923
 H        -5.5288682567        6.2336058159        0.2653560866
 H        -7.7513787401        7.5314253765        1.4886214965
 H        -8.4849432990        5.9844875441        1.1713755818
 H        -8.0550882780        4.5677788011       -2.6708916516
 H        -7.6465064715        6.2677870544       -3.0767410559
 H        -8.0618622480        5.1090003935       -5.0349341520
 H        -9.4001732695        6.1746263581       -4.7808841301
 H       -12.6399457784        1.1394153678       -6.7335137738
 H       -11.6527404204        2.2372904914       -7.5849911734
 H       -13.3365780498        2.6203251778       -7.2785199041
 H       -11.5086803942        6.3194923762       -5.7961421741
 H       -11.9973683609        5.5843078525       -4.2644312540
 H       -13.0392788992        5.4048122037       -5.6216156123
 H       -10.0167335971        5.3502210401       -6.9835620719
 H       -11.1609836576        4.5286587026       -7.8720781293
 H        -9.6686522075        3.6467418107       -7.2252916204
 H       -10.5286125709        6.8202639288        0.4345823775
 H       -11.1945427179        7.6309112966       -0.9772874708
 H       -10.2590744715        8.6348890424        0.1020355683
 H        -9.5230009653        8.1512526564       -3.3550361635
 H        -8.0049561179        8.5868079250       -2.4982512817
 H        -9.4968152758        9.4774348342       -2.0681032361
 H        -2.7368651707        5.2786619070        3.9575340198
 H        -4.0506776262        6.3668497541        4.5376560408
 H        -3.2122504842        6.6829645858        3.0575722000
 H        -4.7060920743        3.4144278958        1.2767980267
 H        -3.3554801307        3.1879727293        2.2228992289
 H        -3.4311281077        4.7127387653        1.0710886898
 H       -10.3585206726        2.6061790977        6.7347666751
 H       -10.6796382866        0.9569512506        5.9710384203
 H       -10.9717513299        2.5700340534        5.0550065476
 H        -7.8495764550        1.2940391858        7.0922714234
 H        -6.9914500846        0.6155257089        5.6324802540
 H        -8.4178005088       -0.0846882261        6.1344414490
 H       -11.0519964024       -1.9344707788       -0.4417828811
 H       -10.7261916326       -1.2362399904        1.1937870130
 H        -9.3753992942       -1.2128377435        0.0223951994
 H       -10.7452514298        0.9504668554       -2.5806842785
 H       -10.4353186300       -0.7951152132       -2.4730511159
 H        -9.1593832800        0.2893157555       -1.9164873350
 H       -13.0699015272        2.9144837903        0.5919236524
 H       -14.3160523054        3.2043307961        1.8239135515
 H       -13.9463418964        4.5353110306        0.7180280566
 H       -16.1291060500        4.6096297406        1.1868175441
 H       -16.9974035675        3.1363902146        1.0838632243
 H       -16.9917560061        4.3492782246       -0.2319097203
 Na      -11.4661638233        3.1987930647       -2.2940041855
