117

 C       -15.0887996045        2.4285044579       -2.2157973860
 C       -14.4275287663        3.3956275715       -1.2098702749
 O       -13.6191309355        4.2209933558       -1.6009181616
 C       -14.8300091004        3.1885779361        0.2433356531
 C       -14.6121749254        1.6474078237        0.7148846836
 O       -15.1656835614        0.7202915124        0.1240093784
 C       -13.6506735126        1.2816072895        1.9476811451
 C       -12.7221113502        0.1694820906        1.6079454092
 C       -11.8053478415        0.7257245886        0.5328322796
 O       -12.1942712079        1.7882826204       -0.0711158841
 C       -10.4745890413        0.0759619293        0.1436640344
 C        -9.3965977578        1.2276871229       -0.0448327754
 O        -9.2948186684        1.8553215861       -1.0557445442
 C        -8.5252454912        1.5240759271        1.1802750910
 C        -9.3987436639        2.1151238938        2.2973940551
 C        -8.8660596644        1.5795434804        3.7020854947
 O        -8.2336479769        0.5459549681        3.7032273773
 C        -9.3789592425        2.3477282506        4.9535468767
 C        -8.6866937972        3.7512837896        4.8240084221
 O        -9.0954720274        4.5217099156        3.9196921098
 C        -7.4772294661        4.0387394944        5.6319703890
 C        -6.7214867095        5.2027642585        5.0035438540
 C        -6.0581040310        4.7247754954        3.7033471441
 O        -6.4349063493        3.7455490667        3.0729034784
 C        -4.8649406343        5.5609793858        3.1030176788
 C        -5.5080903362        6.4994086629        1.9804864575
 O        -5.3844216610        7.7121932827        2.1261751915
 C        -6.0570559354        5.9446380725        0.6971788671
 C        -7.0441359416        6.9366685869        0.1630692924
 C        -7.5209592974        6.6447640381       -1.2759732171
 O        -6.7487344420        6.0615068877       -2.0573110613
 C        -9.0794134359        7.0132764814       -1.7059095325
 C        -9.5313607497        5.6817148278       -2.4518376284
 O       -10.5045180324        5.0805954541       -1.9616352578
 C        -8.8758034671        5.2162884723       -3.8102407348
 C        -9.9590868774        5.0845795686       -4.9583560820
 C       -10.5091427196        3.6066240451       -5.0803428393
 O        -9.8252135175        2.6746548017       -4.6053520248
 C       -11.8684868501        3.3450996792       -5.8097709753
 C       -12.4885534598        1.9178516106       -5.2125278209
 O       -12.3927791041        1.6435329240       -4.0326378297
 C       -13.4913911151        1.1914950391       -6.0782393364
 C       -12.9208339461        4.3293238195       -5.2803984682
 C       -11.7035812394        3.3974967489       -7.3597784345
 C        -9.9914067750        7.3044656291       -0.5279526041
 C        -8.9378083181        8.2127445330       -2.6680795724
 C        -4.1875578849        6.4978811286        4.1905884324
 C        -3.7824800356        4.6600763129        2.4290302401
 C       -10.9388337229        2.6912559061        4.9406350668
 C        -9.0726763698        1.5598758166        6.2718651661
 C       -10.0357095784       -1.0616571793        1.0758766459
 C       -10.6635164965       -0.5542703120       -1.2810062747
 C       -14.0900370011        4.2170501763        1.1896915958
 C       -16.3695004122        3.4192995446        0.3392238794
 H       -15.6691737985        1.6705549425       -1.6971622700
 H       -14.1880166588        1.9705471882       -2.7775846181
 H       -15.6884682119        3.0071178907       -2.9671093862
 H       -14.3272216035        0.9554710455        2.7250168536
 H       -13.1701052330        2.1841595118        2.2582312748
 H       -13.2992529615       -0.6805083985        1.1191123811
 H       -12.1958456235       -0.2313422453        2.4787812757
 H        -7.6985209368        2.2208050893        0.8925533875
 H        -8.1347094883        0.5977372251        1.5343999948
 H       -10.4099032423        1.6865433096        2.1396402501
 H        -9.6013943524        3.2005823815        2.2011594383
 H        -6.8674778495        3.0922715570        5.7090088133
 H        -7.7565628990        4.3076849501        6.6349721815
 H        -6.1045404600        5.6821419018        5.7375666385
 H        -7.4872474334        6.0161019678        4.7954815726
 H        -6.4785384366        4.9876397800        0.8762026972
 H        -5.1527085421        6.0971976624        0.0137923581
 H        -6.5493633128        7.9358840399        0.2187234839
 H        -7.8718518033        6.9064174979        0.8276129833
 H        -8.3327157010        4.3159622494       -3.6180565494
 H        -8.1577525651        5.9978635879       -4.1063749486
 H        -9.5649016571        5.4021795023       -5.8668774458
 H       -10.7480043669        5.7693802708       -4.6898932382
 H       -13.6499289947        1.6747460522       -7.0706623399
 H       -14.5124438607        1.2004459321       -5.6430389885
 H       -13.0588073761        0.2248808372       -6.2618537838
 H       -12.5128206853        5.3188353716       -5.3756193010
 H       -13.1312043937        4.0991839734       -4.2111529381
 H       -13.8062652915        4.2743385189       -5.8835747848
 H       -11.1031789467        4.2956588703       -7.4901045820
 H       -12.6133606073        3.4862429856       -7.8748964184
 H       -11.1206997386        2.5533787634       -7.6867819422
 H       -10.0994826853        6.4415280209        0.0668795456
 H       -11.0024527320        7.4977982696       -0.9253135274
 H        -9.6902385811        8.1188956948        0.0328606646
 H        -9.5615969980        8.1496065026       -3.4902808283
 H        -7.9298324202        8.2374968515       -3.0412803414
 H        -9.2080929406        9.1637275549       -2.2182926844
 H        -3.6553066085        5.8979693818        4.8502277128
 H        -4.9592560132        7.0511286839        4.7035492258
 H        -3.4441141591        7.1193998498        3.7897552347
 H        -4.2441089343        3.8872299229        1.8911026313
 H        -3.1326250750        4.3126235596        3.2305581486
 H        -3.1986832455        5.2272511519        1.7599182855
 H       -11.2858191914        3.1310911858        5.8714004873
 H       -11.5733068479        1.8783473361        4.6587071270
 H       -11.0987608482        3.3598046701        4.1858941237
 H        -8.9635865205        2.1522263696        7.1855350730
 H        -8.1160757423        1.0902307294        6.1509006148
 H        -9.8748075020        0.8073517218        6.5215200706
 H       -10.6568140070       -1.9099750358        0.9496207650
 H       -10.1950846954       -0.7522760659        2.0969404854
 H        -9.0457207127       -1.4097828615        0.9265482568
 H       -10.5856780398        0.1993169637       -2.0457934310
 H       -11.7121662635       -0.9212497376       -1.4548619774
 H        -9.9681162618       -1.3541417621       -1.4984833176
 H       -13.0554322732        3.9174086191        1.1004773267
 H       -14.4626475144        4.0457439036        2.2828748763
 H       -14.1273017153        5.2470838691        0.8512841916
 H       -16.7029094046        4.4912034349        0.2201550727
 H       -16.7973116678        3.0489707770        1.2645316749
 H       -16.9323034609        2.9178387374       -0.4960119061
 Na      -11.1818647429        2.7243785646       -2.2599510591
