117

 C       -14.6670228820        2.3108950992       -2.2344150873
 C       -14.2291213225        3.2424145825       -1.1086514228
 O       -13.4553167683        4.1650082708       -1.3332352208
 C       -14.8276762338        3.0957106855        0.3402213645
 C       -14.5559634796        1.6987916906        0.8777718119
 O       -15.0855699090        0.8132283907        0.2835222559
 C       -13.7458777941        1.3130394905        2.1785823791
 C       -12.5466474885        0.3947990167        1.6755231935
 C       -11.8188705405        0.8469927536        0.3715158369
 O       -12.1452937808        1.7343841996       -0.3142842732
 C       -10.5169355233        0.0584528538       -0.0015705959
 C        -9.3553380404        1.1771590503       -0.1032992296
 O        -9.1666749381        1.7948136066       -1.1472431351
 C        -8.5142007982        1.5220751093        1.0849460557
 C        -9.4101354378        2.1340954890        2.2015054229
 C        -9.0557103837        1.5755129621        3.6403845070
 O        -8.5159505087        0.5000415615        3.8157261352
 C        -9.4855997942        2.4320563831        4.8941786162
 C        -8.7062607755        3.7965351262        4.8163667060
 O        -9.1546303542        4.6611440886        4.1579969077
 C        -7.3747536487        4.0168362863        5.6751762450
 C        -6.5516716716        5.2278717394        5.1134931898
 C        -6.0391967576        4.9592290952        3.6663065700
 O        -6.5099384293        4.0486638147        3.0116464798
 C        -4.8761529670        5.7877821783        3.0100859750
 C        -5.4293158622        6.7885781305        2.0032923399
 O        -5.4291044043        7.9855871702        2.2028594874
 C        -5.9927203442        6.0642425280        0.7317896746
 C        -7.0965584636        6.9723041107        0.0778264102
 C        -7.5157974796        6.4704302810       -1.2840843566
 O        -6.7326785403        5.9876758974       -2.0642367564
 C        -9.0064148993        6.7040053663       -1.7816527899
 C        -9.5416246595        5.4850334531       -2.5987392435
 O       -10.4579010176        4.8826865141       -2.1111429963
 C        -8.8832255447        5.2336588621       -4.0055898333
 C       -10.0540063379        4.9946574543       -4.9826288321
 C       -10.5875110099        3.5573872184       -4.9489863642
 O        -9.9262043622        2.6499202437       -4.5531195730
 C       -11.9693055583        3.2643779831       -5.6857487835
 C       -12.5564790170        1.9426439533       -5.1080565237
 O       -12.2816924242        1.6589415402       -3.9367594161
 C       -13.3845651693        0.9930163912       -5.9260230022
 C       -13.0464890906        4.4266805829       -5.4149009935
 C       -11.7223518113        3.1795460810       -7.2015645502
 C       -10.0079615754        6.9940362393       -0.6091809158
 C        -8.9246883677        7.9792743196       -2.7383752325
 C        -4.0699817776        6.5845440474        4.0981680902
 C        -3.9345669811        4.6747819846        2.3675411651
 C       -10.9855729098        2.7787455432        4.8140654144
 C        -9.1603401379        1.5785315415        6.1557534262
 C       -10.0786894935       -0.9922271976        1.0496088086
 C       -10.8450728229       -0.5709161604       -1.3852060685
 C       -14.1513865335        4.2098195934        1.2089972366
 C       -16.3115868100        3.3411477726        0.3369356399
 H       -15.5578061515        1.8512002635       -1.9205922847
 H       -13.9312835131        1.5958668173       -2.4603859240
 H       -14.7759404297        2.9256586257       -3.0723811263
 H       -14.4715215145        0.8406322196        2.8837971908
 H       -13.4352648465        2.1979014765        2.7856340576
 H       -12.7532954931       -0.6362945191        1.4839838867
 H       -11.7757332519        0.3504466263        2.4825083575
 H        -7.7364808758        2.2691028807        0.8483529206
 H        -7.9886510105        0.6220202548        1.5464381957
 H       -10.4523562573        1.8588811083        2.0941982323
 H        -9.4781094888        3.2070327729        2.2334019197
 H        -6.7174592317        3.1828927631        5.6553662684
 H        -7.6388825523        4.1274727875        6.7435335922
 H        -5.7541559099        5.4874961277        5.8454293707
 H        -7.1124195798        6.1143624171        5.0857867276
 H        -6.5212226083        5.1265323689        1.0835095027
 H        -5.1947911579        5.9569617303        0.0592812478
 H        -6.6841294701        7.9675117580       -0.2585116552
 H        -7.9117971302        7.1435850565        0.8433417420
 H        -8.2306660064        4.3148267199       -3.9973046169
 H        -8.2736409348        6.0923878371       -4.2972306745
 H        -9.6606132500        5.1035591178       -6.0461938393
 H       -10.8176892394        5.7634719062       -4.8100560749
 H       -13.4704784975        1.1248485803       -6.9619640280
 H       -14.3749736381        1.2422072246       -5.6277500110
 H       -13.0394686905       -0.0304606645       -5.8075442942
 H       -12.6763849221        5.3010567456       -6.0036541325
 H       -13.1274748926        4.7059858078       -4.3754841377
 H       -14.0145911010        4.0875791676       -5.8527612812
 H       -11.4893686839        4.1858654504       -7.5754111633
 H       -12.7260242855        2.8664760264       -7.6378465334
 H       -10.9477612859        2.3952103188       -7.4583188613
 H       -10.0557438800        6.1218450187        0.0924235479
 H       -10.9995343614        7.2567818833       -0.8736978959
 H        -9.6645707229        7.8757712485        0.0437027098
 H        -9.8953173518        8.2398357171       -3.2481561605
 H        -8.1210330741        7.8774842012       -3.4571540091
 H        -8.7744962160        8.8714854358       -2.1432399138
 H        -3.7716550120        5.8801759081        4.9353404413
 H        -4.5991741641        7.4147164074        4.5206172526
 H        -3.1481591908        6.9420154364        3.5327205694
 H        -4.6309349517        3.9773049716        1.7604211808
 H        -3.3784382701        4.2281040273        3.1949073473
 H        -3.1597382833        5.0818099977        1.6272268226
 H       -11.2015919924        3.6863319918        5.3623844084
 H       -11.6360087603        1.9879596529        5.1792486558
 H       -11.2888237970        2.9606432919        3.7105102382
 H        -9.5669902741        1.8969391148        7.1083780031
 H        -8.0770268288        1.4852335419        6.2361091697
 H        -9.5884784875        0.6457803283        6.0671670340
 H       -10.7648897408       -1.8589905692        1.1683524989
 H        -9.7963983267       -0.5768816790        2.0246441628
 H        -9.2627107226       -1.5523216146        0.5340573069
 H       -11.1824600165        0.1542318048       -2.1416035296
 H       -11.6016793690       -1.3040960163       -1.3551057392
 H        -9.9389343302       -1.0189153850       -1.7956816587
 H       -13.0392051058        4.2187504256        1.1988932978
 H       -14.5592028344        4.0507308403        2.1488259403
 H       -14.4563522092        5.2027764995        0.7943347017
 H       -16.7332448625        3.8576919728       -0.4732964685
 H       -16.6500571930        3.8360674512        1.2540691732
 H       -16.7907994176        2.3953168192        0.4111673073
 Na      -11.2972930167        2.8585873848       -2.1843209315
