117

 C       -14.7235525616        2.3673209040       -1.9768827915
 C       -14.1921162346        3.2150361214       -0.9041059185
 O       -13.1552633417        3.8370831793       -1.1663426472
 C       -14.8576733167        3.2924399480        0.5212124629
 C       -14.5036821392        1.8573402011        1.1928614213
 O       -15.0792748500        0.8507009859        0.8122119820
 C       -13.3844975467        1.5971623685        2.2185337227
 C       -12.5209389588        0.3085527369        1.8222381772
 C       -11.7830224884        0.6757932234        0.4945758672
 O       -12.3169398887        1.4050430535       -0.2581602241
 C       -10.4129377013       -0.0692452674        0.0544417388
 C        -9.3651332062        1.1311047390        0.0205733171
 O        -9.4849577568        1.9380988709       -0.9112667405
 C        -8.3485506768        1.3963108888        1.1007356645
 C        -8.8542813008        2.5075852067        2.1173509382
 C        -9.1457514431        1.8267592718        3.4658740779
 O        -9.1534367075        0.5934416530        3.5434408110
 C        -9.4736741758        2.6416151785        4.7293411912
 C        -8.7188925728        4.0965284910        4.8816509497
 O        -9.2463839790        5.1144661766        4.5254711795
 C        -7.2840445651        3.9204359062        5.3965530930
 C        -6.3705351020        5.0536110336        4.9665623492
 C        -6.0413296170        5.1177191992        3.4689327880
 O        -6.7718412596        4.5621246908        2.6419239681
 C        -4.8374852331        5.9717370582        3.0193431917
 C        -5.4960338883        6.9075034566        1.9436924689
 O        -5.7154565562        8.0764433924        2.2787702424
 C        -5.8566621453        6.3769901285        0.5632114232
 C        -7.0282728088        7.1294551188       -0.0604824313
 C        -7.4975657503        6.4425707809       -1.3389798373
 O        -6.8275813060        5.5626203971       -1.8998793443
 C        -8.9496724354        6.7728465713       -1.8896613402
 C        -9.3934589468        5.5121101901       -2.7372205252
 O       -10.1219435167        4.6750249212       -2.2222799594
 C        -8.8961078283        5.3324526970       -4.2003385818
 C       -10.0571205118        4.8588815749       -5.1613876221
 C       -10.5895762834        3.3842127379       -4.9564582229
 O       -10.0447522596        2.5768724424       -4.2243337553
 C       -11.9422203867        2.9470614722       -5.6636024267
 C       -12.5813630497        1.6668781899       -5.0392872859
 O       -12.5870448820        1.4492811507       -3.8135855551
 C       -13.3188382730        0.7090803220       -5.9129449616
 C       -13.0807239901        4.0293251605       -5.4294330411
 C       -11.7759743018        2.8288469650       -7.2204490019
 C        -9.9625974812        6.9174729129       -0.7595438395
 C        -8.9310647317        7.9978575575       -2.7527464587
 C        -4.0449086549        6.7847133974        4.1123801511
 C        -3.8762444762        4.9224790766        2.3405005345
 C       -10.9996159126        3.0008844126        4.5144334114
 C        -9.2311804592        1.7569402705        5.9849764381
 C        -9.8516826281       -1.2211880015        0.8872934357
 C       -10.6005719810       -0.5808983623       -1.4535508480
 C       -14.4698424280        4.4731066388        1.3671388396
 C       -16.4186262158        3.1954027434        0.2183301168
 H       -15.7221637050        2.6000916392       -2.0349869991
 H       -14.6239131693        1.3157409834       -1.6233528659
 H       -14.1687554165        2.5515093381       -2.8697170386
 H       -13.8403501635        1.4925694145        3.1820743010
 H       -12.8615748530        2.5243429381        2.3969678767
 H       -13.1927402216       -0.5218032194        1.6504082661
 H       -11.8309392229       -0.0672304138        2.6382232262
 H        -7.3715984739        1.7878381697        0.7938347483
 H        -8.0697364358        0.5234437203        1.6647622910
 H        -9.7169029460        3.0341238797        1.7146984405
 H        -8.1670052478        3.2930295681        2.4209543894
 H        -6.9504143225        2.9983940560        4.9832627028
 H        -7.2884665504        3.8079653309        6.4779702445
 H        -5.4115725822        5.0475646976        5.5538788111
 H        -6.8996268538        5.9015795398        5.3142839689
 H        -6.1476711581        5.3003356645        0.8041174736
 H        -5.0029176558        6.3791924904       -0.1001559382
 H        -6.6624651361        8.2057322725       -0.3410452541
 H        -7.9071564078        7.2464906072        0.6083569124
 H        -8.1252667622        4.5352304852       -4.1675817053
 H        -8.4071815209        6.2449063288       -4.5818800487
 H        -9.6895060138        4.8213423417       -6.1820557625
 H       -10.8410041036        5.5751058713       -5.1493925078
 H       -12.7854568819       -0.1131926490       -6.3229469020
 H       -13.6464145086        1.3138996424       -6.7446433057
 H       -14.0805481279        0.1393060162       -5.4118932297
 H       -12.8900618266        4.9885896251       -5.9440693914
 H       -13.0641225986        4.2522338307       -4.4011237939
 H       -14.0545735909        3.5751777210       -5.6924231368
 H       -11.5655979329        3.7839771806       -7.6374253817
 H       -12.7267056850        2.5451697193       -7.6558276998
 H       -11.0046564706        2.0549947092       -7.5484060341
 H       -10.1926432199        6.0232294138       -0.2689428184
 H       -10.8677976756        7.2303752361       -1.1889089805
 H        -9.7858855365        7.5979829050        0.0407673018
 H        -9.8857912736        8.1421129616       -3.2561656455
 H        -8.1665474407        7.9182191961       -3.4833836988
 H        -8.6436640888        8.8777074065       -2.2082274507
 H        -3.6131603521        6.1474405583        4.8002481845
 H        -4.6458455040        7.4153677416        4.6667798416
 H        -3.3958573910        7.4224356590        3.5497380305
 H        -4.5074487917        4.1254209837        1.8397077810
 H        -3.2963176397        4.4824113574        3.1046110930
 H        -3.1680236627        5.3970027887        1.6346479385
 H       -11.4010783888        3.2055223729        5.4785194197
 H       -11.5461435100        2.2024295903        4.1555506220
 H       -11.0921045804        3.9127938514        3.9369817808
 H        -9.2034476762        2.3037921227        6.9596292317
 H        -8.3608282937        1.1027271432        5.8929606384
 H       -10.0238304351        1.0941819542        6.0998168926
 H       -10.4139190069       -2.1165636279        0.6546362823
 H        -9.9033168323       -0.9846334325        1.9052255522
 H        -8.7843751653       -1.3759391761        0.6243943368
 H       -11.0234168863        0.2254231801       -2.0739335330
 H       -11.2929513982       -1.4107148225       -1.5248664472
 H        -9.7138037145       -0.8328551435       -2.0046352903
 H       -13.3741402274        4.5787780289        1.1930614623
 H       -14.6877661640        4.4198789404        2.4452167659
 H       -14.9570636814        5.4109851342        0.9201104344
 H       -16.6925714685        4.1124006474       -0.3021135455
 H       -17.0693186919        3.1676976685        1.1490250247
 H       -16.7274301579        2.3032367282       -0.3147186495
 Na      -11.2988267311        2.6015014584       -2.1866404663
