117

 C       -14.8683592594        2.3986011181       -2.0410553441
 C       -14.1737904080        3.2745505142       -0.9239137749
 O       -13.1600574161        3.9654022045       -1.0163789374
 C       -14.8418688252        3.2218819340        0.4783292823
 C       -14.4577448624        1.8027810744        1.1942150475
 O       -15.2291742457        0.8724516090        0.9937664129
 C       -13.2452074412        1.5931897520        2.1751117373
 C       -12.4864860277        0.4032582831        1.8499908543
 C       -11.7803490306        0.5364473741        0.5003964977
 O       -12.3532030609        1.2865035176       -0.3109572694
 C       -10.3780079219       -0.0418486005        0.1258260126
 C        -9.3797683436        1.1823341462        0.0610806012
 O        -9.4585609430        2.0674594824       -0.7737345271
 C        -8.3078080778        1.3018032706        1.0923378304
 C        -8.7376265250        2.4585209600        2.0357860041
 C        -9.1177047987        1.8855833057        3.4446033444
 O        -9.3274149994        0.7018113327        3.5700668754
 C        -9.5049007585        2.7247124540        4.6977172730
 C        -8.6570853668        3.9868290782        4.8412700800
 O        -9.1733461093        5.1031365934        4.6338732517
 C        -7.2453843739        3.8345230509        5.3010466272
 C        -6.4688483659        5.1131494708        4.9642006162
 C        -6.0776593107        5.1287242124        3.4363685543
 O        -6.7171219400        4.5499258940        2.5693379874
 C        -4.8540398735        5.9689379344        2.9841819962
 C        -5.5167469948        6.9683190065        1.9084267180
 O        -5.7872563947        8.0963239444        2.1996695473
 C        -5.7203771325        6.4422331625        0.4591787809
 C        -6.9722239014        7.2131138060       -0.1210591955
 C        -7.5330646915        6.3791042216       -1.3200637680
 O        -6.8182915555        5.5531709710       -1.8390075387
 C        -8.9939738783        6.7568161793       -1.9480280448
 C        -9.4546025581        5.4747048888       -2.7809216797
 O       -10.1460380472        4.7070853268       -2.1410606513
 C        -9.0751706970        5.2590863683       -4.2392602571
 C       -10.0983503706        4.7269601554       -5.2170030760
 C       -10.6234273865        3.3174044923       -4.9406170854
 O        -9.9663751132        2.5112733846       -4.2879772170
 C       -11.9393042784        2.8867374780       -5.6960982458
 C       -12.5469571543        1.5662025856       -5.0813469455
 O       -12.5741116151        1.3870577801       -3.8820072279
 C       -13.3527642373        0.6045259094       -6.0095960115
 C       -12.9787311516        3.9663801191       -5.3657444977
 C       -11.6479480061        2.8669702967       -7.1856170149
 C        -9.9728821343        6.9319118959       -0.7889027947
 C        -8.8142785273        8.0858506061       -2.7748042240
 C        -4.1707425874        6.7984383721        4.0252922605
 C        -3.8748204450        5.0395320156        2.3376888258
 C       -10.9817124804        3.1866419197        4.5011152651
 C        -9.2996000405        1.7858583831        5.9041882908
 C        -9.8626726585       -1.2394860759        0.9358304833
 C       -10.4977249205       -0.6295513308       -1.2753465018
 C       -14.5006487405        4.4554157809        1.2639996768
 C       -16.4363375308        3.1463602131        0.4809997564
 H       -15.8353964419        2.7947820094       -2.1748263362
 H       -14.9641554843        1.4272775576       -1.6187959361
 H       -14.2895881714        2.3865965172       -2.9021883729
 H       -13.6890735970        1.5578558681        3.2113692945
 H       -12.6687920254        2.5486738433        2.2876523908
 H       -13.2115349866       -0.4226401860        1.7867060603
 H       -11.8243896478        0.1058878176        2.6370681081
 H        -7.2936485992        1.6984108066        0.7249065372
 H        -8.0143115739        0.4202783526        1.6487914115
 H        -9.5747903946        2.9396279504        1.5759149969
 H        -8.0190647708        3.2564394929        2.2249546984
 H        -6.7428342662        2.9210378722        4.9498369837
 H        -7.3131431395        3.7969786866        6.3576622547
 H        -5.5503462050        5.0874164195        5.5385344893
 H        -7.0922063931        5.9020195817        5.3720254884
 H        -5.8842058891        5.3895833681        0.4846529114
 H        -4.7307236665        6.5957991755       -0.0925444067
 H        -6.6534451146        8.2025078250       -0.5830296617
 H        -7.6893003909        7.4345936950        0.6298044051
 H        -8.1660139307        4.6691365290       -4.1581366801
 H        -8.7554143959        6.2715983617       -4.6426283103
 H        -9.7370716926        4.7108345844       -6.2626128097
 H       -10.8884490356        5.5463258890       -5.1749397571
 H       -12.8338229728       -0.3160837358       -6.2366841261
 H       -13.6750876388        1.0134223961       -6.9630175131
 H       -14.1471110182        0.1641658744       -5.4695886513
 H       -12.5045494516        4.9346883369       -5.4829573504
 H       -13.2098958394        3.9070310728       -4.2786131334
 H       -13.8890971373        3.9112484105       -5.9821350525
 H       -11.2681913493        3.8673527609       -7.5850522716
 H       -12.5525836088        2.6127514450       -7.7826917096
 H       -10.8784856909        2.0735943176       -7.3519468121
 H       -10.2245395296        6.0794097835       -0.1669602573
 H       -10.9792924503        7.3619323739       -1.0995733049
 H        -9.6197537548        7.6241821036       -0.0615278477
 H        -9.4624263286        8.1173527643       -3.6074327807
 H        -7.7921630288        8.1897142829       -3.1493002740
 H        -8.8936533976        8.9969312124       -2.1437466497
 H        -3.5109706150        6.1898495513        4.6145541921
 H        -4.9295891951        7.1772070910        4.7787054884
 H        -3.7637877030        7.6769542577        3.5751572019
 H        -4.4209522537        4.2823165642        1.7503413306
 H        -3.2358136350        4.5004068838        3.1546167278
 H        -3.1512926427        5.6604990733        1.7086058071
 H       -11.4188968498        3.5587242606        5.4683210406
 H       -11.5637323364        2.3066247713        4.2103267167
 H       -11.0058672598        3.9873003456        3.8294006643
 H        -9.1275507841        2.1999557177        6.8711514650
 H        -8.5207093266        1.1277038655        5.6847751895
 H       -10.1504926589        1.0972713157        5.9801643055
 H       -10.5762046673       -2.0446661014        0.7462237704
 H        -9.8882895034       -0.9613182974        2.0142137004
 H        -8.8103400086       -1.4901999865        0.6853143312
 H       -10.7190396970        0.1255747048       -1.9890484568
 H       -11.3228391247       -1.3719030738       -1.3241637467
 H        -9.6474275525       -1.0838444073       -1.6925172612
 H       -13.4426850223        4.5731022606        1.2439857198
 H       -14.8352601683        4.3791210165        2.3701362247
 H       -14.9843975233        5.3090650145        0.8199947278
 H       -16.8821992424        4.1061393168        0.2150884403
 H       -16.7968499580        2.9067134084        1.4544894113
 H       -16.8144558962        2.3585251340       -0.1544203442
 Na      -11.3193178112        2.5921072048       -2.1404013638
