117

 C       -15.3011680487        1.9653212590       -1.4411463006
 C       -14.5563622405        2.8798308739       -0.4123151035
 O       -13.4997680277        3.4408154968       -0.6045366680
 C       -15.1379164920        3.0440207973        1.1057694128
 C       -14.9321383307        1.5240196603        1.6377481218
 O       -15.8083830699        0.6778126374        1.6182808933
 C       -13.5359440626        1.2305683479        2.1258319377
 C       -12.9067867594       -0.0581147849        1.4769461438
 C       -12.2526279824        0.0993813224        0.1220319068
 O       -12.8676105879        0.4838042137       -0.8551398320
 C       -10.6988184204       -0.1390365144        0.0018811019
 C       -10.0421699163        1.2720827075        0.3443602251
 O       -10.3910988544        2.3032245315       -0.2694669962
 C        -8.8623530777        1.3891279625        1.3488566409
 C        -8.9134698804        2.7796197024        2.0913424816
 C        -9.0725837292        2.6621362032        3.5437425509
 O        -9.1746995878        1.5822224718        4.1232200872
 C        -9.1225362225        3.9518314611        4.3995064065
 C        -7.8032429769        4.6610592769        4.1349471678
 O        -7.7316752125        5.4642146715        3.2263778921
 C        -6.5521950189        4.3079185412        4.9805156726
 C        -5.4857486767        5.4318536502        4.7970662451
 C        -5.0756004414        5.6877721411        3.3402552263
 O        -4.9707753711        4.7149037959        2.5821435149
 C        -4.7371771857        7.0980659929        2.6774353873
 C        -5.9764657362        7.4206095883        1.7964865325
 O        -6.7363729503        8.3348244008        2.1377452301
 C        -6.1359992988        6.7577363475        0.4178103397
 C        -7.6670620838        6.8656703500       -0.0495663954
 C        -7.9182404901        5.8383793877       -1.1707546101
 O        -7.3106440545        4.7645170190       -1.2455006539
 C        -9.1312360975        6.0900466943       -2.0979506839
 C        -9.5585530379        4.8892104931       -3.0352084019
 O       -10.7637458510        4.6015322988       -3.0953063095
 C        -8.5270664262        4.2749554155       -4.0428089049
 C        -9.2494552874        3.5610390497       -5.1383294270
 C       -10.2950319937        2.5556460532       -4.7077526673
 O       -10.0517749501        1.7307457232       -3.8061869877
 C       -11.5933568472        2.4679792808       -5.5536312294
 C       -12.2979011246        1.1804774426       -4.8866050913
 O       -12.8014197415        1.1764841274       -3.7635712791
 C       -12.2389845746       -0.1207798681       -5.6014028847
 C       -12.3996993465        3.7672449791       -5.4889161105
 C       -11.2881744043        2.2616132120       -7.0490320185
 C       -10.3735446780        6.4535830940       -1.1699905092
 C        -8.7571474067        7.3514102366       -2.9712093213
 C        -4.4315960490        8.3111583000        3.5430950791
 C        -3.5186544900        6.7682240881        1.8619426561
 C       -10.2823724596        4.9093308532        3.9320803757
 C        -9.3354767811        3.4853334287        5.8797446175
 C       -10.2308001565       -1.3105502336        0.8167006257
 C       -10.3334395874       -0.4203597229       -1.5037066703
 C       -14.3466256754        4.0459119642        1.9033496639
 C       -16.7404936529        3.3230898443        1.1528163714
 H       -16.1549642197        2.5450949899       -1.8139562300
 H       -15.5092251572        1.0331214719       -1.0351170273
 H       -14.6304602707        1.8724953355       -2.2399061568
 H       -13.5262776835        0.9431269463        3.2273994464
 H       -12.8001477596        2.0704216604        1.9601068741
 H       -13.7003651648       -0.8103590809        1.4614597066
 H       -12.1844872041       -0.4044551568        2.1958889302
 H        -7.9797950014        1.2727692112        0.6365327959
 H        -8.8618059658        0.6678992759        2.1766439711
 H        -9.7128790790        3.3565447698        1.6386635550
 H        -8.0285448993        3.3568723551        1.7902743391
 H        -6.2768702616        3.3151697245        4.6502392103
 H        -6.8214751798        4.2212000214        6.0270328836
 H        -4.5705335370        5.1554708474        5.3142884349
 H        -5.7983217562        6.2758861649        5.3650380123
 H        -5.8660062286        5.6924183082        0.3661991170
 H        -5.5377963249        7.3981448985       -0.2396404150
 H        -7.9173440851        7.8168111369       -0.4456149027
 H        -8.3124562800        6.6871335160        0.7618483546
 H        -7.9244626262        3.6192595950       -3.4558593813
 H        -7.8459186935        5.0150408725       -4.5533026704
 H        -8.4627188600        3.0042147602       -5.6951866198
 H        -9.6364939926        4.3593821151       -5.8473369316
 H       -12.8810687087       -0.0172905637       -6.4462904588
 H       -12.4026553542       -1.0209395924       -5.0681350297
 H       -11.2595742864       -0.2118668664       -6.0944623235
 H       -11.8418096320        4.6193603272       -5.7668376034
 H       -12.8682743343        3.9858776073       -4.4970286800
 H       -13.1988813247        3.6596457540       -6.1846626119
 H       -10.7499533744        3.1823293916       -7.4130651232
 H       -12.1719458091        2.1463973341       -7.7060893015
 H       -10.6729829315        1.4236765437       -7.2719083372
 H       -10.7138735301        5.6223674450       -0.5775686009
 H       -11.1815305014        6.8286927894       -1.7150246504
 H       -10.0293377875        7.1917187747       -0.4162611398
 H        -9.6182681298        7.7603789898       -3.3958913806
 H        -8.0699910245        7.0443156381       -3.7509583857
 H        -8.1588196480        8.0334571466       -2.3652458509
 H        -3.7525912437        8.0676728219        4.3486152833
 H        -5.2989935623        8.6366405624        4.0037799512
 H        -4.1587020214        9.0522626091        2.8397194252
 H        -3.7522412583        6.0093147547        1.0772269935
 H        -2.7156648585        6.2346663076        2.4078597049
 H        -3.1154650378        7.6311571695        1.3511736866
 H       -10.2851982459        5.7453302384        4.5461463465
 H       -11.1780833930        4.3674063891        4.1617062157
 H       -10.1759403392        5.2602319071        2.9486143316
 H        -8.8719644019        4.1224357854        6.5674626852
 H        -8.9833198993        2.4721289461        5.9244789670
 H       -10.4318852535        3.4319926469        6.1292032425
 H       -10.9780318416       -2.0214372751        0.5960928019
 H       -10.1766174651       -1.1574110660        1.9043840399
 H        -9.3057864100       -1.7113456370        0.5294565408
 H       -11.0709632968       -0.1403629593       -2.2489507324
 H       -10.1985183271       -1.5044407721       -1.6776511717
 H        -9.4424486241        0.0895391032       -1.8098061319
 H       -13.2491046161        4.0665390217        1.5625655535
 H       -14.2968144226        3.7643793003        2.9589940607
 H       -14.7609843625        5.0655276040        1.9007040311
 H       -16.8671660047        4.3567074591        0.7207700460
 H       -17.0558696498        3.3449768996        2.1750888201
 H       -17.2608522136        2.5660450999        0.5245014522
 Na      -11.6880338343        2.4724925330       -2.1274833914
