117

 C       -15.2476623827        2.3645718783       -1.6924044705
 C       -14.5052621675        3.0914503254       -0.6314589526
 O       -13.4319134215        3.6401031104       -0.8866623859
 C       -15.0566845600        3.0421297815        0.8230848235
 C       -14.6531563917        1.6688228598        1.5116276737
 O       -15.5069753083        0.9343689434        1.9227052499
 C       -13.2042003214        1.4238548763        1.8263146571
 C       -12.6216895584        0.0811268928        1.5044118749
 C       -12.0357366981        0.1568556213        0.0177727770
 O       -12.6919697620        0.5672482492       -0.8679348578
 C       -10.4885698383       -0.1605342288       -0.1609523361
 C        -9.8315168984        1.2087476162        0.3261964046
 O       -10.2324573481        2.2359900052       -0.2343374458
 C        -8.7652269711        1.1672788166        1.4281656957
 C        -8.7008336741        2.5121694816        2.2211509955
 C        -9.1043261993        2.2421453060        3.6735610365
 O        -9.4457935087        1.1493691184        4.0794158948
 C        -9.3659551110        3.5072599291        4.6382148744
 C        -8.1411571950        4.5047442725        4.4565382562
 O        -8.2498022692        5.5484624241        3.8171400966
 C        -6.7450473614        3.9902057296        4.9943999145
 C        -5.5612452866        4.9503072492        4.7081105844
 C        -5.4915281905        5.2548175880        3.1905597771
 O        -5.5642684066        4.3482280120        2.4037008908
 C        -4.8517717097        6.6949231341        2.6995157266
 C        -5.8713872781        7.3649020949        1.6249046758
 O        -6.4105813791        8.4035604013        1.8768021915
 C        -6.0559031527        6.5638555411        0.3888019095
 C        -7.0820047585        7.2978114193       -0.5436790634
 C        -7.7531874962        6.2397412204       -1.4454122752
 O        -7.3108129090        5.1339896262       -1.5182408606
 C        -9.1572704855        6.4660115415       -2.1134695826
 C        -9.5928167095        5.1515676549       -2.7938878519
 O       -10.6267219866        4.6386686220       -2.4615593397
 C        -8.7197499932        4.5915815066       -3.8912075915
 C        -9.4104884741        3.8671006085       -5.0251961384
 C       -10.3318246355        2.7615695849       -4.5247263219
 O       -10.0300361272        1.9748017653       -3.6798456345
 C       -11.6489072207        2.6240900595       -5.3806337130
 C       -12.2924152480        1.3316944314       -4.9339053363
 O       -12.8290217175        1.2538598693       -3.8530691319
 C       -12.2056497883        0.0504084596       -5.7972070373
 C       -12.4668902291        3.9083501184       -5.1487838365
 C       -11.3186075769        2.5003109819       -6.9501597779
 C       -10.1302596301        6.9522774657       -1.0846939962
 C        -9.0397493764        7.5389385037       -3.2206022769
 C        -4.7187214508        7.7748789180        3.8231501078
 C        -3.4479651366        6.3297846401        2.0777920828
 C       -10.7673463380        4.2274539223        4.2385082420
 C        -9.4203066940        3.0088116026        6.1512871068
 C       -10.0410200349       -1.4133348348        0.6621701315
 C       -10.1916256028       -0.4509532653       -1.6327680928
 C       -14.3816901438        4.2146801657        1.5973294564
 C       -16.5760150658        3.2137620202        0.9797816229
 H       -16.1984191024        2.7745910547       -1.8005917130
 H       -15.1413277886        1.3219255319       -1.4520158298
 H       -14.7381954092        2.5246625321       -2.6009782701
 H       -13.2607528857        1.5327557076        2.9514455505
 H       -12.4900892582        2.0874440492        1.2635643166
 H       -13.4121608080       -0.6196239339        1.5082622397
 H       -11.8397833371       -0.1800101289        2.2394322015
 H        -7.7603960811        1.0038842773        0.9443580337
 H        -8.9930491871        0.3797135964        2.1885629268
 H        -9.3721678361        3.2062597049        1.7056345503
 H        -7.7025653352        2.8954902880        2.1564887782
 H        -6.4985664563        3.0277986309        4.6267135646
 H        -6.9521369627        3.8318759570        6.0663853170
 H        -4.6567387069        4.3721441451        4.9507341805
 H        -5.6305364505        5.7838695974        5.3361565680
 H        -6.3213303393        5.5395052480        0.7840358876
 H        -5.1273223354        6.3230008249       -0.0950360469
 H        -6.5528710407        7.9234105765       -1.2502377594
 H        -7.7082183090        7.9192083601       -0.0188404037
 H        -8.0484249071        3.8234613447       -3.4380793059
 H        -8.0843462602        5.3672946133       -4.2954830627
 H        -8.6719815767        3.5053662259       -5.8222335931
 H       -10.0439057462        4.6152386085       -5.5145055933
 H       -12.8837134182        0.1946797257       -6.6027479753
 H       -12.4450661094       -0.8332254257       -5.2363697531
 H       -11.2919080349       -0.2972956624       -6.1039383908
 H       -11.9331378181        4.8269004115       -5.4386669237
 H       -12.7498677056        3.9937713553       -4.1452363969
 H       -13.4166023463        3.8262180149       -5.6947780406
 H       -11.0013134834        3.4647957433       -7.3565321663
 H       -12.2327711964        2.3974697944       -7.5478166231
 H       -10.5829482364        1.7470675134       -7.3558265148
 H       -10.3499225715        6.2344702249       -0.3073572852
 H       -11.1056173650        7.2911751191       -1.5188598217
 H        -9.7765611891        7.8203036879       -0.5928388740
 H        -9.8542131810        7.4044276755       -3.9149800518
 H        -8.0948979832        7.4953240817       -3.6795352957
 H        -9.2928763704        8.4928755852       -2.8228198458
 H        -4.3517818306        7.3005409327        4.7070905406
 H        -5.7055051800        8.2624994060        3.9913241206
 H        -3.9652613844        8.5049138654        3.5740720295
 H        -3.5498230891        5.6063918517        1.2699381893
 H        -2.6860922750        6.0721223468        2.8565976272
 H        -3.0244559119        7.2523370844        1.5757830535
 H       -10.9165570507        5.0938402490        4.8690626992
 H       -11.5339135511        3.5454816711        4.3800862076
 H       -10.7550047610        4.4405263879        3.2048924780
 H        -9.6850929598        3.8653929657        6.7921566267
 H        -8.4784892880        2.6479602767        6.4915254959
 H       -10.2024401907        2.3150288833        6.2987082239
 H       -10.6207679627       -2.2473135476        0.3251450758
 H       -10.1548762838       -1.2639964987        1.7017343607
 H        -9.0140222848       -1.6761930213        0.3955384142
 H       -10.0160166348        0.4892153413       -2.1267276600
 H       -10.9941392065       -0.8269164770       -2.2627169265
 H        -9.3046250335       -1.0290340166       -1.7816307029
 H       -13.3765176148        4.0582928818        1.9053432772
 H       -14.9617477608        4.3819478737        2.5618426532
 H       -14.2640693778        5.1957611971        1.0825353975
 H       -16.9347592449        3.9284054454        0.2521070452
 H       -16.8162406502        3.4721872246        2.0413108009
 H       -17.0073922382        2.2254933458        0.8498080635
 Na      -11.8903387524        2.5319486270       -2.2413325619
