117

 C       -15.6130841576        2.4021454644       -1.4329069878
 C       -14.6572700187        2.8900542066       -0.2975948714
 O       -13.5315784193        3.2420823728       -0.6048723212
 C       -15.1547995099        2.9601838586        1.1412444815
 C       -14.9340555422        1.3704316883        1.6380780459
 O       -15.8771383992        0.6783687234        1.4191515324
 C       -13.6229774232        0.8806933326        2.2621000666
 C       -13.0073085316       -0.3446204430        1.6112075516
 C       -12.2791399245        0.0422268880        0.3361866743
 O       -12.8423435907        0.7019395399       -0.4694769721
 C       -10.6640552674       -0.1577722899        0.1260334957
 C       -10.0061712260        1.2529644444        0.3177979964
 O       -10.4135695944        2.2886677580       -0.3135500764
 C        -8.9040038007        1.4562876862        1.3877392426
 C        -8.7595387427        2.9221537560        1.9920358562
 C        -8.8853998795        2.8214151739        3.5036592564
 O        -9.1788537085        1.8307580780        4.1550092236
 C        -8.9701363060        4.1773034927        4.2761813609
 C        -7.7258811960        4.9636040605        4.0445027015
 O        -7.6369834064        5.6111483881        3.0306577281
 C        -6.5013665993        4.8107606141        4.9791053382
 C        -5.5758701234        5.9605555168        4.6643118310
 C        -4.7639714979        5.7994890333        3.3034145735
 O        -4.3824859649        4.7524930669        2.7868911374
 C        -4.5822083159        7.1573203973        2.5965496256
 C        -6.0410210125        7.3508966575        1.8578175106
 O        -6.7930409465        8.2563674451        2.2079860269
 C        -6.2784780936        6.5467966967        0.4982447194
 C        -7.8504981036        6.3200456508        0.2180316550
 C        -8.1052026289        5.5551270276       -1.1098204734
 O        -7.4396048931        4.5495919736       -1.4069455650
 C        -9.2690726500        6.0542075456       -2.0106772898
 C        -9.6152330269        4.7880552134       -3.0133806077
 O       -10.7453464100        4.3362770701       -3.0346893979
 C        -8.5120135053        4.2437798135       -3.9513704439
 C        -9.2075746073        3.6002796934       -5.1428197565
 C       -10.0569361481        2.3741391129       -4.8276472715
 O        -9.8975320490        1.7268263914       -3.8099979945
 C       -11.3958064872        2.1634475326       -5.6926845569
 C       -12.2848754837        0.9950355697       -5.0983683626
 O       -12.8095273470        1.2639817840       -3.9981105446
 C       -12.7141538001       -0.2303815440       -5.7811645615
 C       -12.3338875867        3.4144955165       -5.5677380322
 C       -11.0227292493        2.0831632178       -7.1845328374
 C       -10.5276941297        6.5191790020       -1.2713644061
 C        -8.6582161448        7.3354192511       -2.7559375503
 C        -4.2900594064        8.2675575067        3.6105379225
 C        -3.5161514179        7.2679646826        1.5271201749
 C       -10.1942305866        4.9968322693        3.7346343784
 C        -9.1059151308        3.9915672444        5.8423774964
 C       -10.0477613133       -1.2142122476        1.0775691282
 C       -10.4482507518       -0.6542456985       -1.3594124921
 C       -14.4736724448        3.9744457035        2.0089571076
 C       -16.7271913272        3.2101266884        1.0850825548
 H       -16.5841926226        3.0343263906       -1.4451085587
 H       -15.7969552571        1.3689352770       -1.2041979309
 H       -15.0390759896        2.5341712841       -2.3818382361
 H       -13.6991587301        0.8036876518        3.3347186663
 H       -12.8437492478        1.6525281667        2.2114353922
 H       -13.7746259593       -1.0647568048        1.3696937096
 H       -12.3786263054       -0.9192682671        2.3347041149
 H        -7.9289275406        1.1302175511        0.9577268839
 H        -9.1631627107        0.8367229009        2.2261155542
 H        -9.4897341267        3.5595688907        1.4936060011
 H        -7.8707327285        3.3860195718        1.6211056569
 H        -5.9524013421        3.9037546469        4.7425435494
 H        -6.8923086618        4.7417858146        6.0172364213
 H        -4.8548419615        6.1558487744        5.5197079706
 H        -6.1086466654        6.8684748690        4.6161998963
 H        -5.8409013760        5.5245396924        0.6739073870
 H        -5.9074344590        7.1447818751       -0.3223468935
 H        -8.2984743154        7.3826542798        0.1331129183
 H        -8.3906919098        5.8114560554        0.9846296650
 H        -7.9161954467        3.4539287016       -3.5063679418
 H        -7.8472105646        5.0833230733       -4.2293177019
 H        -8.4619391266        3.3379845360       -5.8550113968
 H        -9.8541937001        4.2660121532       -5.6313259158
 H       -12.7608964605       -0.0954223801       -6.9097005662
 H       -13.7707519418       -0.3332837544       -5.4470584666
 H       -12.1159243291       -1.1708892144       -5.7144300953
 H       -11.9110842037        4.3642509435       -5.8886511023
 H       -12.6936801942        3.5374390596       -4.5254144854
 H       -13.2416660798        3.2671608371       -6.1742643717
 H       -10.5280581480        2.9901405244       -7.5719136748
 H       -11.9240459555        1.9195745478       -7.7482566824
 H       -10.4103268885        1.2849172012       -7.4449927435
 H       -10.9566536286        5.8068347463       -0.5630422225
 H       -11.2852150029        6.6868677160       -2.0285195623
 H       -10.3235140359        7.4621459367       -0.7403614525
 H        -9.3500549441        7.6553673937       -3.5200790901
 H        -7.7466026369        7.0797730679       -3.3196990108
 H        -8.3327936861        8.1021760382       -1.9830005858
 H        -3.6180880365        7.7900313445        4.3721108854
 H        -5.1738711295        8.5575881986        4.1893212218
 H        -3.8617052202        9.1204419809        3.1070761725
 H        -3.3119186821        6.3565999398        1.0577946453
 H        -2.5292341280        7.5410167462        1.9228425830
 H        -3.8023138592        7.9825775958        0.8214286459
 H       -10.2438375098        5.9115714980        4.3925996622
 H       -11.0918116100        4.3587965513        4.0104637124
 H       -10.0829139865        5.3665042342        2.7175822348
 H        -9.3328677297        4.9696554978        6.2557577609
 H        -8.2552714908        3.5305568280        6.3157610977
 H        -9.9283318428        3.2008991822        6.0324525349
 H       -10.4902558274       -2.1772591931        0.8703172222
 H       -10.0917552229       -0.9906457320        2.1866527588
 H        -8.9499849134       -1.3149066220        0.8925469183
 H       -11.3426914407       -0.4393215775       -1.9351427085
 H       -10.1528893002       -1.7488517255       -1.4774658623
 H        -9.7257593914       -0.0730262999       -1.8941143399
 H       -13.3905970181        3.8574604517        2.0589907111
 H       -14.8388094248        3.9090030389        3.0361495704
 H       -14.7190616780        4.9432310360        1.6757113266
 H       -16.9633219739        4.1094592708        0.5170073517
 H       -16.9933045631        3.3661726049        2.0796850767
 H       -17.1916514199        2.3068297739        0.7190436808
 Na      -12.1171719783        2.4893388269       -2.1271761134
