117

 C       -15.5386760530        2.6105474966       -1.4931880898
 C       -14.7016406661        2.9795836020       -0.3071176197
 O       -13.6029642790        3.5210948211       -0.5181718528
 C       -15.2724796430        2.7729518388        1.1027001841
 C       -15.0141002879        1.2779775514        1.5860375715
 O       -15.7559591857        0.3704643525        1.2369391108
 C       -13.7174000915        0.9270310298        2.4061292320
 C       -12.9861610395       -0.2910792526        1.6855769042
 C       -12.2617275679        0.1434788389        0.3903265023
 O       -12.8713782063        0.7513657156       -0.5183171011
 C       -10.7266026772       -0.0945723258        0.1899616201
 C       -10.0383959159        1.3263178375        0.4111233512
 O       -10.3317784159        2.1918605088       -0.3049539926
 C        -8.9673911618        1.5037292649        1.3996295752
 C        -8.7593083788        2.9055526731        2.0353246179
 C        -9.0233463958        2.8937654859        3.5516746598
 O        -9.1108682422        1.8473636847        4.1385301338
 C        -9.0580272476        4.2452441847        4.2812794983
 C        -7.6022233956        4.9894556242        4.0133430946
 O        -7.5552053233        5.5986429841        2.9666679665
 C        -6.3593598914        4.9844170680        4.9706782598
 C        -5.2891719565        6.0918317482        4.7235088651
 C        -4.6447935703        6.0551664583        3.2898333640
 O        -4.1838130279        5.0304651755        2.9042630629
 C        -4.5896272564        7.3319599280        2.3591802883
 C        -6.0557664948        7.4751560335        1.6948313714
 O        -6.8680750517        8.2293985818        2.1279615016
 C        -6.3562246726        6.3262248000        0.6612636788
 C        -7.7946711263        6.3805353573        0.1851550928
 C        -8.0357520405        5.4758982658       -0.9846116482
 O        -7.4148536879        4.5092883560       -1.2529851725
 C        -9.2308022928        5.9747619524       -1.9965493933
 C        -9.7117331281        4.7851172672       -2.8601506665
 O       -10.8357560049        4.3053035712       -2.7926875118
 C        -8.6992642480        4.2389622180       -3.8971103114
 C        -9.2352279453        3.5094933633       -5.1160337306
 C       -10.2407733010        2.3998154455       -4.7572714180
 O        -9.9552204263        1.6804572493       -3.8337781505
 C       -11.4456986279        2.1635450847       -5.7441466725
 C       -12.3052874715        1.0280683014       -5.1139443046
 O       -12.7065531355        0.9996918527       -3.9784575723
 C       -12.7900993980       -0.0983517872       -6.0617889991
 C       -12.3156612312        3.5084116541       -5.7954989125
 C       -10.8341153531        1.7323761943       -7.0991487679
 C       -10.5556176471        6.3746468999       -1.2125522911
 C        -8.6059467336        7.1355775237       -2.8660046706
 C        -4.3598640159        8.6211983673        3.1722655185
 C        -3.5391549697        7.1054488955        1.3016220995
 C       -10.1986107022        5.1461155673        3.7177615686
 C        -9.3733833653        3.9454247356        5.7219317891
 C       -10.1799162485       -1.1628295981        1.2207909145
 C       -10.5337546165       -0.5681091366       -1.2632147181
 C       -14.4106396934        3.8486401815        2.0441618899
 C       -16.7634811903        3.0242089271        1.3238386226
 H       -16.1167844716        3.4422780789       -1.6341335390
 H       -16.1745537264        1.7618192240       -1.2268013234
 H       -14.9246692752        2.4588960795       -2.3399054391
 H       -14.0044622662        0.6557451185        3.4603825298
 H       -13.0373281270        1.7608240934        2.6991143914
 H       -13.7815273360       -1.0344839932        1.5450973577
 H       -12.3205842561       -0.8053166654        2.3347238357
 H        -8.0228810355        1.1851642253        0.9404520145
 H        -9.1678247172        0.8275668209        2.2904425487
 H        -9.3675849284        3.6401999963        1.4952571077
 H        -7.7545417446        3.2565533500        1.7216889821
 H        -5.8331629024        4.0475826587        4.7232592938
 H        -6.7085917589        4.9386921042        5.9722408120
 H        -4.5327797633        5.8741022124        5.4090892016
 H        -5.6534157717        7.1025450662        5.0378652534
 H        -6.1412899242        5.3745622230        1.0419800472
 H        -5.7539639182        6.6995081160       -0.1808289104
 H        -8.0827694450        7.3581569124        0.0325368763
 H        -8.4362286210        5.9923336081        0.9834960205
 H        -8.0090114140        3.6129357352       -3.2922132731
 H        -8.1344758486        5.0992356771       -4.1949404709
 H        -8.4849575280        3.0244304739       -5.7878409381
 H        -9.7132164118        4.3179717273       -5.7379076915
 H       -12.5539743456       -0.1058871359       -7.0754801408
 H       -13.8575479200       -0.2307229301       -5.9929297542
 H       -12.2414689237       -0.9549630503       -5.7916039530
 H       -11.8486325575        4.2767073098       -6.4199208125
 H       -12.4520750686        3.9011218298       -4.8265835919
 H       -13.3055186768        3.3479150994       -6.2035310615
 H       -10.0583613388        2.3909740988       -7.3435190271
 H       -11.4635519736        1.5782730363       -7.9614260978
 H       -10.2454999744        0.8038814507       -6.8671213801
 H       -10.9225851079        5.4754820579       -0.7563071598
 H       -11.3105286843        6.7250055796       -1.9283793163
 H       -10.3848517435        7.1738543974       -0.5595492527
 H        -9.1723126647        7.2203148100       -3.8296397596
 H        -7.5643159742        7.0048738800       -3.1573971983
 H        -8.7263483596        8.0155142924       -2.2824797311
 H        -3.5142958619        8.5554144382        3.7810106974
 H        -5.2304480238        8.7897703478        3.7872600899
 H        -4.1903566387        9.4350290260        2.4885246654
 H        -3.7261829077        6.1833872876        0.7525945277
 H        -2.5787160150        6.9951575042        1.7473761957
 H        -3.3886785146        7.9255390540        0.5723272714
 H       -10.4065035327        5.9056006674        4.4375889153
 H       -11.0449658092        4.5915013953        3.4903013169
 H        -9.7327311998        5.6438486011        2.8695336547
 H        -9.2862807380        4.9296377339        6.2379952704
 H        -8.6290710278        3.2531663622        6.1659443503
 H       -10.3001699241        3.4808164558        5.8291884055
 H       -10.7098670968       -2.1258038853        1.2090855903
 H       -10.2429669543       -0.8384783002        2.2146598919
 H        -9.1617762962       -1.4019359128        1.0015008894
 H       -10.8158709706        0.1887759662       -2.0210675258
 H       -11.0181383507       -1.4933721358       -1.4387094806
 H        -9.4398636989       -0.7624534428       -1.4551502919
 H       -13.3168693992        3.8257379793        2.0080257275
 H       -14.6999870949        3.7067367508        3.1259890035
 H       -14.7311464749        4.9233283025        1.7940191049
 H       -16.9489393140        3.9853726717        0.8439686302
 H       -16.9580949516        3.0838062156        2.4523318443
 H       -17.3082140556        2.1914180651        0.8430854341
 Na      -11.9569763353        2.2977886615       -2.0910468950
