117

 C       -15.1069565500        2.3256214013       -1.8153673856
 C       -14.4371973500        2.7295027253       -0.4907219655
 O       -13.2351810953        3.0371571568       -0.4891703818
 C       -15.2696384750        2.5978192506        0.7863048610
 C       -14.8838026048        1.0730944206        1.2518269804
 O       -15.5505978727        0.1758116162        0.8475658510
 C       -13.7075759991        0.8935931367        2.1817920298
 C       -12.8950900683       -0.3102050688        1.7859397532
 C       -12.0557567400       -0.1037906866        0.5117445975
 O       -12.6787007333        0.3858751135       -0.4747050528
 C       -10.5479817625       -0.3061217197        0.3970148356
 C        -9.9529420249        1.1493680225        0.6551711421
 O       -10.1080786298        1.9813636150       -0.2175024130
 C        -9.2230638772        1.4736792511        1.9193016397
 C        -9.1069355805        2.9523033875        2.2693677206
 C        -8.8243831529        3.1514949541        3.8341501152
 O        -8.7718206955        2.1942781125        4.5864682231
 C        -8.7087554680        4.5993594592        4.4054505669
 C        -7.3727922987        5.3039650113        3.8788282592
 O        -7.0163832659        5.1824166564        2.7252228199
 C        -6.7597777617        6.3800369701        4.8653262490
 C        -6.0159829547        7.4281427550        4.0125964583
 C        -4.8609655681        6.7945009237        3.1958036995
 O        -4.2542268939        5.8222598651        3.6179057552
 C        -4.4662025646        7.5058653396        1.8104471657
 C        -5.7736379146        7.8030392712        1.0701022639
 O        -6.4462377170        8.8003996041        1.3581217027
 C        -6.2658912157        6.7822480646        0.0364684697
 C        -7.5457348932        7.0651718953       -0.6081688775
 C        -8.2465550484        5.7900758949       -1.1391356895
 O        -7.8580116370        4.6769366467       -0.7985740021
 C        -9.5702976754        5.9475489621       -1.9402249704
 C       -10.0030816089        4.5773734470       -2.5412854521
 O       -11.2138626800        4.3137623191       -2.6221610331
 C        -8.9265711517        3.6788652399       -3.2008651595
 C        -9.4763827237        2.9901902882       -4.4544863749
 C       -10.3954081134        1.7897742381       -4.3710577194
 O       -10.3316277291        0.9778344699       -3.4474684579
 C       -11.4390674396        1.4968285358       -5.4915564651
 C       -12.9064649037        1.2060598091       -4.8453307451
 O       -13.1826938414        1.5982794462       -3.7155311970
 C       -13.9202053490        0.5382298001       -5.6123278909
 C       -11.6829037498        2.5430239989       -6.6365627506
 C       -10.8087670896        0.2364266497       -6.1801253011
 C       -10.6295872340        6.3920615561       -0.8838890675
 C        -9.4869162625        6.9857414631       -3.0773007996
 C        -3.8032910005        8.8879429218        2.1312478709
 C        -3.4833066193        6.5475666393        1.1085070149
 C        -9.8676423258        5.5477813305        4.0809398752
 C        -8.5599367598        4.4314773865        5.9151695122
 C        -9.9104029594       -1.3806548806        1.2725697888
 C       -10.2869407064       -0.6986197102       -1.0624207750
 C       -14.7760291739        3.7158760709        1.7093501422
 C       -16.8036606772        2.7284149957        0.5662915555
 H       -16.0585007040        2.7934352286       -1.8483125835
 H       -15.2468433837        1.2829252179       -1.8077776521
 H       -14.5634629692        2.7050311546       -2.6352201014
 H       -14.1346149092        0.6629937411        3.1041984305
 H       -13.0661679133        1.7231991363        2.1752712709
 H       -13.6355563356       -1.1274316319        1.5426679870
 H       -12.2561127853       -0.5348218963        2.6371226070
 H        -8.2092986031        1.0264148428        1.8382346123
 H        -9.6399993354        0.9157959803        2.7378280009
 H       -10.0826264532        3.2911753053        1.9106319350
 H        -8.3381525720        3.4059602917        1.5812393566
 H        -6.1297543310        5.8234257671        5.5971644278
 H        -7.5225988639        6.8456755471        5.4799580073
 H        -5.5932394146        8.1631755881        4.6921452819
 H        -6.7987821835        7.9599570470        3.3599504683
 H        -6.2413932272        5.8269013342        0.4886307104
 H        -5.4619598022        6.5457043194       -0.7207169142
 H        -7.4794744482        7.8242983093       -1.3817523359
 H        -8.3266936501        7.4433908389        0.1855294965
 H        -8.5477143412        2.9341755125       -2.4588709862
 H        -8.0618314576        4.3492277156       -3.3927507689
 H        -8.6297614283        2.4528693424       -4.9747584232
 H        -9.8982084578        3.7018447735       -5.2297131542
 H       -13.6409261654       -0.4484785104       -5.9560946354
 H       -14.3769566243        1.1706668692       -6.3549375917
 H       -14.7284148949        0.3572004746       -4.9928048385
 H       -10.7235113081        2.8391686874       -7.0909834006
 H       -12.0789885026        3.4357362208       -6.2681071514
 H       -12.3476785899        2.1771505452       -7.4226164260
 H        -9.9502494520        0.5010198502       -6.7569289483
 H       -11.6231592720       -0.1105283750       -6.8044443127
 H       -10.6540323872       -0.5408190502       -5.4084174895
 H       -10.5656150823        5.6365268082       -0.1028030136
 H       -11.6475201431        6.3941294106       -1.3543163276
 H       -10.2447648538        7.2784780391       -0.4292978132
 H       -10.4046052482        6.9128764991       -3.6762600223
 H        -8.7158996474        6.7946362398       -3.8087123131
 H        -9.2927431966        7.9484172566       -2.7514822570
 H        -2.9587460484        8.8126702545        2.7324861185
 H        -4.4771110626        9.4870691071        2.7646028269
 H        -3.6538462206        9.4595133993        1.2600473747
 H        -3.5692677333        5.5424824532        1.4705598803
 H        -2.3878334728        6.7663772034        1.2996139263
 H        -3.6373957237        6.6322263778        0.0086883713
 H        -9.7523960442        6.5331447482        4.5376401063
 H       -10.7466076448        5.1045004191        4.3821195567
 H        -9.8405816302        5.6763647972        3.0432890987
 H        -8.5564076447        5.4168855658        6.3824360886
 H        -7.6786894734        3.8869097126        6.1566340862
 H        -9.3372825983        3.8681377303        6.3685750421
 H       -10.5136388949       -2.2863897929        1.2547079544
 H        -9.8414642579       -0.9984637962        2.2443606958
 H        -8.9057970271       -1.6392117771        1.0172786361
 H       -10.8168298138       -1.6170075939       -1.1904816397
 H        -9.2180211506       -0.7586711847       -1.2137962326
 H       -10.7572303998        0.0372459517       -1.6820258104
 H       -13.7644047808        3.4673042687        1.8132237625
 H       -15.2767438705        3.7529382242        2.7379259216
 H       -14.9179994779        4.6983492717        1.1966492732
 H       -17.1810384305        3.4788465594       -0.1487810128
 H       -17.3323424818        2.9116996033        1.5751668126
 H       -17.1006637802        1.6842727662        0.2845505283
 Na      -11.8475378366        2.1907659445       -1.8819722917
