117

 C       -15.5590709213        2.3437178500       -1.6737894404
 C       -14.8198542335        2.7210387920       -0.4105576898
 O       -13.6408160574        3.0741128463       -0.3517359354
 C       -15.5755974385        2.6181027212        0.9463922600
 C       -15.0559099521        1.1744415504        1.3839714408
 O       -15.6297517569        0.1648047365        1.1131706161
 C       -13.5885595951        1.1810025441        1.9856464913
 C       -12.8934636219       -0.1738491603        1.7717511178
 C       -11.9720498245       -0.1801171007        0.5589896401
 O       -12.4763556720        0.0617783446       -0.5607196937
 C       -10.4315720960       -0.3682458138        0.6762359598
 C        -9.9110712700        1.0791271325        0.9391542099
 O        -9.9671372213        1.8824293657        0.0498388158
 C        -9.3061542502        1.4770006658        2.2486869451
 C        -9.1003219718        2.9446284929        2.4794338041
 C        -8.7312331625        3.1689835465        3.9440611324
 O        -8.3752363655        2.2555863127        4.6879399964
 C        -8.7376283358        4.6434026708        4.5511913485
 C        -7.5846491652        5.4673906328        3.8252708849
 O        -7.3001296658        5.3285733131        2.6461799737
 C        -6.8337280967        6.5691522189        4.6857601128
 C        -6.0530548429        7.5418199722        3.7479591511
 C        -4.8302785601        6.9799481164        3.0806209154
 O        -4.0593153321        6.2473965929        3.6906890000
 C        -4.3926381436        7.5315541181        1.6608646005
 C        -5.6287573366        7.8117804867        0.7068484727
 O        -6.1145307739        8.9395590215        0.5878586863
 C        -6.1932414010        6.5972177748       -0.0984477402
 C        -7.4243818929        6.9925611335       -0.9395186816
 C        -8.3493905604        5.7897941569       -1.3177734980
 O        -8.0347862136        4.6162471120       -1.0612431805
 C        -9.7326895319        6.0271821737       -2.0376555481
 C       -10.1348699374        4.5952834936       -2.5904433996
 O       -11.2413842364        4.1243323388       -2.4119979762
 C        -9.0948145048        3.7915230446       -3.3362984731
 C        -9.7385388478        3.2691612467       -4.6329111650
 C       -10.3037863362        1.8423965726       -4.5250541206
 O       -10.0437637961        1.0793965597       -3.6131776351
 C       -11.2841000775        1.3718126087       -5.5988189911
 C       -12.6795622156        1.2778734119       -4.9254061862
 O       -12.7985198136        1.3262642541       -3.7299620404
 C       -13.8401696047        1.0758328182       -5.8304610486
 C       -11.2510542613        2.1106699620       -6.9338117000
 C       -10.8606134313       -0.1230962736       -5.9932329858
 C       -10.8456131090        6.4651894583       -1.0197373309
 C        -9.5529608249        7.0588996631       -3.2023041665
 C        -3.7396846299        8.8789991430        1.9330473871
 C        -3.3561126495        6.5609884100        1.0565624924
 C       -10.0713556436        5.3499242703        4.0320838535
 C        -8.6816057310        4.6051595886        6.0937528532
 C       -10.0195507600       -1.3829613703        1.8102642877
 C        -9.8840448518       -0.8437038101       -0.7210333820
 C       -15.1224484737        3.6481539688        2.0513047145
 C       -17.0944417541        2.5107046321        0.9398489137
 H       -16.0778291004        3.2433228169       -2.0173155471
 H       -16.2499758925        1.6267749601       -1.3835838431
 H       -14.9121527613        2.0267747081       -2.4867699107
 H       -13.7417401264        1.3162070897        3.0507429000
 H       -13.0138105297        2.0419952520        1.6045742588
 H       -13.7053169314       -0.9400028075        1.6563928329
 H       -12.2849060733       -0.4248157999        2.6381396369
 H        -8.3594852407        0.9284851373        2.4277339930
 H        -9.9808001143        1.1506978984        3.0380426318
 H       -10.0642603732        3.4865187309        2.3026547579
 H        -8.3590759911        3.2841346413        1.6810329144
 H        -6.2003474944        6.1051979683        5.4484956321
 H        -7.5717136203        7.0625462287        5.2743363937
 H        -5.7720881239        8.4213559822        4.2816602678
 H        -6.7205415797        8.0023491909        2.9648660755
 H        -6.2172802236        5.7719657140        0.5031022096
 H        -5.3666394960        6.2695146625       -0.7570523943
 H        -7.1720157213        7.5445420307       -1.8154985073
 H        -8.0680133560        7.6782397991       -0.2932554476
 H        -8.8761155019        2.9596751815       -2.6363230292
 H        -8.1585772006        4.2945445931       -3.5223913593
 H        -8.8511212143        3.2440200435       -5.3141740852
 H       -10.4962653729        3.9319784247       -5.1350121051
 H       -13.8711579561        1.8492379294       -6.6116528725
 H       -14.7810135746        0.8780862233       -5.3518853094
 H       -13.6287500780        0.3381406524       -6.5735980082
 H       -10.1445485940        2.2091182674       -7.1288772848
 H       -11.6600018646        3.0908704486       -6.9638334253
 H       -11.6669428286        1.5189428333       -7.7857238967
 H        -9.8428654381       -0.1243216170       -6.3193807800
 H       -11.4722587251       -0.2620089979       -6.8388578158
 H       -11.0535707753       -0.8291028393       -5.2376813889
 H       -10.6626019106        5.9045402986       -0.1569361603
 H       -11.7610800719        6.1645392067       -1.4153809192
 H       -10.7997113392        7.5227479166       -0.9244160741
 H       -10.5036901765        7.1316432869       -3.8221065480
 H        -8.8344134012        6.6869591093       -3.9637260147
 H        -9.3416891617        8.0745270095       -2.8946493800
 H        -2.9793540111        8.8465547184        2.6808165119
 H        -4.4766886206        9.5832066546        2.3132650865
 H        -3.3186678771        9.2676383791        1.0763062179
 H        -3.7596351231        5.7706574370        0.5228842928
 H        -2.7880119968        6.1277726034        1.8845270096
 H        -2.6784555712        7.1398725042        0.5173792433
 H       -10.2240131828        6.3429784733        4.5952968692
 H       -10.9281144364        4.7046536112        4.3040137710
 H       -10.0436972713        5.6215287652        2.9933627865
 H        -9.1399133850        5.5276389363        6.5470158793
 H        -7.6403879800        4.5749170885        6.4136766633
 H        -9.1590676451        3.6447822757        6.4932966712
 H        -9.4491260282       -2.2023540274        1.3705330234
 H       -10.8603290892       -1.8974649419        2.2238586261
 H        -9.3833731297       -0.9795726493        2.6017405936
 H       -10.3871870632       -1.7637488605       -0.9557719230
 H        -8.7755397023       -0.9957230779       -0.5291577296
 H        -9.9484053235       -0.0266865034       -1.4460056932
 H       -14.1502560103        4.0679805682        1.8147504533
 H       -15.1788088642        3.1438549767        3.0719474745
 H       -15.8086742363        4.4990097504        1.8708457093
 H       -17.6133251643        3.4667097442        0.9226092219
 H       -17.4326764970        1.9971991032        1.8621102629
 H       -17.5475227488        1.9480801090        0.1229430939
 Na      -11.6167633455        1.7683510728       -1.7029714340
