117

 C       -15.4650549502        2.3160156236       -1.7218999198
 C       -14.7227383233        2.7761431864       -0.3969211681
 O       -13.5110487049        2.9821145609       -0.4142591150
 C       -15.5219225455        2.6467521380        0.9449242515
 C       -14.9547461261        1.1315347065        1.3419208171
 O       -15.6057072716        0.1816847348        1.0055034602
 C       -13.6700732265        1.0864610642        2.1089049635
 C       -12.8869873204       -0.1841288484        1.8203087246
 C       -11.9720880157       -0.1064001427        0.4861753761
 O       -12.4445770634        0.1779486245       -0.5681187891
 C       -10.4347258316       -0.3954613177        0.5586135134
 C        -9.9190213322        1.0948819894        0.8138420125
 O       -10.0477654540        1.9371302276       -0.1251920460
 C        -9.3330728822        1.4415831341        2.1504236968
 C        -9.1756284620        2.9596879865        2.4790435815
 C        -8.7821491583        3.1895658588        3.9475556010
 O        -8.4891098784        2.2276453935        4.5992255289
 C        -8.7170218410        4.6178105670        4.5375257881
 C        -7.5105715538        5.4479454519        3.8329302133
 O        -7.1971391885        5.3009664566        2.6668217094
 C        -6.8467943622        6.4946849868        4.7117317557
 C        -6.0600653791        7.5188122876        3.8997118792
 C        -4.8405927013        6.9406698620        3.1707181445
 O        -4.0654318987        6.1652055842        3.7086647360
 C        -4.3711734823        7.5667263625        1.7265687531
 C        -5.6460573895        7.7644520306        0.7078384779
 O        -6.1588383643        8.8777142671        0.7358221703
 C        -6.1538178849        6.6448717500       -0.1591748797
 C        -7.4849885670        6.9996898398       -0.8418882080
 C        -8.3116153506        5.7945614979       -1.2732895451
 O        -7.9613538197        4.6620557089       -1.0357240743
 C        -9.7412308399        5.9413397729       -2.0644171700
 C       -10.1673664385        4.4991434511       -2.5324592698
 O       -11.3749066798        4.1555989991       -2.4684186763
 C        -9.0481220078        3.6446932693       -3.2004972322
 C        -9.5368851232        3.2723155179       -4.5963621841
 C       -10.2305936098        1.8693958949       -4.5229806379
 O       -10.0096996480        1.2619401902       -3.4752993920
 C       -11.2317205032        1.3122712673       -5.6254711071
 C       -12.7037942420        1.2739188094       -4.9180035652
 O       -12.9219849269        1.3945218004       -3.7041956933
 C       -13.9410341485        0.9004973122       -5.7959908974
 C       -11.3752043800        2.2839501842       -6.8419704499
 C       -10.9597617524       -0.1377626750       -6.0517177514
 C       -10.8277886220        6.4876801225       -1.0402415845
 C        -9.7259219346        6.9192164687       -3.2176938227
 C        -3.7095419124        8.8922489245        2.0367689446
 C        -3.3828070846        6.5629107397        1.1379944325
 C       -10.0005928474        5.3737272774        4.0380222574
 C        -8.6280506135        4.5757521238        6.0396383340
 C       -10.0609102487       -1.4224354161        1.6494453715
 C        -9.8675688018       -0.8328142082       -0.7921795792
 C       -15.1222258278        3.7036615273        1.9699026648
 C       -17.0570526589        2.6057596589        0.8848250298
 H       -16.0655833244        3.1123120487       -2.1606872980
 H       -16.1357781329        1.4577107019       -1.4074488177
 H       -14.7075878978        2.0480980546       -2.4922189839
 H       -14.0370086515        1.0849220373        3.2181515790
 H       -13.0549725048        2.0101104128        1.9032943885
 H       -13.6184385335       -1.0129813363        1.7605089091
 H       -12.2115251805       -0.3381371377        2.6248593493
 H        -8.3126449173        0.9341242043        2.1876464093
 H        -9.9349411752        0.9363702917        2.9012535018
 H       -10.0483041180        3.4950012991        2.0235524224
 H        -8.3425778589        3.1857767122        1.8029036960
 H        -6.1533779174        5.9738263262        5.3286945491
 H        -7.5569750208        6.8943660683        5.4521623132
 H        -5.7079458478        8.1935411556        4.6658746977
 H        -6.6014064750        8.1784014899        3.2353924076
 H        -6.1441877503        5.7972268544        0.5454434923
 H        -5.3993014331        6.2599166878       -0.7688896433
 H        -7.3813174092        7.5454094294       -1.7360609347
 H        -8.0322983776        7.6334494057       -0.1556266764
 H        -8.9040767691        2.8018644345       -2.6058247495
 H        -8.0639483440        4.1489023775       -3.2258385109
 H        -8.6945884119        3.3181163471       -5.2681175735
 H       -10.2955377313        3.9551234911       -4.9894013684
 H       -13.7954925714        1.2310893770       -6.8506335191
 H       -14.8932158208        1.2758877624       -5.3170544910
 H       -14.1045609491       -0.1216909034       -6.0829632561
 H       -10.4059732394        2.4037007551       -7.3589259047
 H       -11.7184624897        3.2930901888       -6.5652163685
 H       -12.0790104633        1.8706835359       -7.5811510246
 H        -9.9939363521       -0.1349557585       -6.4554001041
 H       -11.6732314253       -0.3887632114       -6.8235319033
 H       -11.0510406145       -0.7959350719       -5.1475115023
 H       -10.6387538436        6.0160750822       -0.1207093885
 H       -11.7403841361        6.0425612095       -1.4689470152
 H       -10.8355483634        7.5229774998       -0.9996446224
 H       -10.7303419070        7.2028406146       -3.6259211782
 H        -9.2191659787        6.5417245578       -4.1551927103
 H        -9.2514136295        7.8380410120       -2.8724741935
 H        -2.7630442773        8.8448547640        2.5146722693
 H        -4.3373016955        9.4427905765        2.7881401359
 H        -3.6718792606        9.5438106816        1.1345636434
 H        -3.8661045897        5.6273867383        1.1028707696
 H        -2.5686598512        6.3785274444        1.7872619526
 H        -2.9814128412        6.9056474574        0.2008411646
 H        -9.9348368635        6.4689353636        4.3382353904
 H       -10.9357721818        4.9493176703        4.4580359574
 H        -9.9739652346        5.4469784119        2.8970896997
 H        -9.3419906715        5.3084459478        6.5386496717
 H        -7.5931907762        4.7218308441        6.4748956025
 H        -8.8783822080        3.5607796261        6.2889102354
 H        -9.5757281396       -2.3527833505        1.2060479757
 H       -10.9094620412       -1.7953868432        2.2218680595
 H        -9.3233054315       -1.0323611687        2.3700323222
 H       -10.5572928280       -1.5856476136       -1.2715283529
 H        -8.8767173920       -1.1991619271       -0.5755385635
 H        -9.6911351017        0.0953982093       -1.3493738411
 H       -14.1072875638        3.8440211205        1.7470206872
 H       -15.2507784477        3.3093332056        2.9998140345
 H       -15.5850579357        4.6675224368        1.6974261660
 H       -17.3885686565        3.5667672610        0.6093803515
 H       -17.5929175040        2.3426421111        1.8033223270
 H       -17.3962218203        1.9477979220        0.1332885130
 Na      -11.5958704278        1.9395675563       -1.6919391857
