117

 C       -15.6432828712        2.4195144367       -1.7558756407
 C       -14.8650090414        2.1953785092       -0.4414014864
 O       -13.6250295086        2.1330596858       -0.4845456656
 C       -15.5298939823        2.2960539996        0.9128193940
 C       -15.0652123205        0.9914650103        1.7400285564
 O       -15.7501015649        0.0280051651        1.9128579271
 C       -13.5679613227        1.0103168798        2.2791185925
 C       -12.8867950036       -0.3179831586        2.1021365299
 C       -12.0148067602       -0.3617406376        0.8595069003
 O       -12.4835496329       -0.4134902608       -0.2836810501
 C       -10.4472849157       -0.4489292344        1.0550526602
 C       -10.1642972440        1.0917494783        1.2994041720
 O       -10.4956227998        1.8888469249        0.5107810411
 C        -9.2617037986        1.5583437395        2.4611033603
 C        -9.1406137910        3.0655438783        2.6071682688
 C        -8.5592639960        3.4192915782        4.0194253480
 O        -8.0038284796        2.6883927204        4.7732955233
 C        -8.6634078259        4.9369208236        4.4952622573
 C        -7.9186242766        5.9356571284        3.5512717545
 O        -8.1293032263        5.9029368573        2.3597817447
 C        -7.0572822008        7.0793747481        4.1570006365
 C        -6.3044497484        7.8706737026        3.0637834587
 C        -5.0124872317        7.0619861791        2.6230367616
 O        -4.7071452670        6.0300117505        3.1462728795
 C        -4.3074944950        7.7533798924        1.4081880609
 C        -5.3748025431        7.9099470141        0.1878776418
 O        -5.5942277456        8.9589267429       -0.3433145620
 C        -6.0394555589        6.6013059353       -0.2230842756
 C        -7.2335287284        6.9996783841       -1.1097644449
 C        -8.1598492857        5.7233976095       -1.3144775466
 O        -7.8874437274        4.6803720274       -0.7628272282
 C        -9.5268745350        5.9001274189       -2.0985813907
 C       -10.0073746705        4.5756386929       -2.7598079391
 O       -10.9588714254        3.9404203848       -2.3185541171
 C        -9.1854434897        4.1458163909       -3.9753546964
 C        -9.9496528710        3.3037572797       -4.9989088056
 C       -10.4415352132        1.8933708907       -4.4467658844
 O       -10.0803784901        1.5207987999       -3.3233294882
 C       -11.2884249867        0.9803002676       -5.3324444294
 C       -12.8407008408        1.3237558767       -4.9743405233
 O       -13.2627421427        1.7198179438       -3.8852671711
 C       -13.6443876589        1.3324565600       -6.2188491099
 C       -10.8443962467        1.1309154099       -6.8092482216
 C       -10.9739784729       -0.5411875512       -4.9187454913
 C       -10.5982627418        6.3793852635       -1.0349860645
 C        -9.3761459369        7.0359283218       -3.2120620423
 C        -3.8422793919        9.1219616039        1.8358922061
 C        -3.1455446182        6.8548689641        1.0330735476
 C       -10.1551434323        5.3131531979        4.5263510574
 C        -8.0983163667        5.1149393311        5.8906673864
 C        -9.9884429535       -1.4222285748        2.2113574538
 C        -9.6198805430       -0.8156593933       -0.2253678261
 C       -15.0546867170        3.5255726996        1.6311172357
 C       -17.1347827792        2.1997301607        0.8407199256
 H       -16.0648357186        3.4553081612       -1.5815037173
 H       -16.4746983527        1.6905556782       -1.8128521954
 H       -15.0281965647        2.3265935781       -2.6721873580
 H       -13.6946009955        1.4097759976        3.3227993282
 H       -13.0255991067        1.8986795562        1.8249576830
 H       -13.5471932885       -1.1700044201        2.1391699860
 H       -12.2131668687       -0.5124216516        2.9158947819
 H        -8.2863114453        1.1428054292        2.1495602221
 H        -9.4758091210        1.0725329046        3.4290595181
 H       -10.0445595965        3.6279183645        2.5083599077
 H        -8.4992620744        3.5600360375        1.8771569048
 H        -6.3616508444        6.6989486359        4.9443150683
 H        -7.7884145493        7.7442220934        4.6010186117
 H        -6.0637515406        8.7777596797        3.5575041278
 H        -6.9672074243        8.1619868889        2.2093352395
 H        -6.4307881694        6.1264175875        0.6134725766
 H        -5.2847716538        5.9818773285       -0.8140709897
 H        -6.8508317334        7.5196549943       -1.9379469246
 H        -7.8947456252        7.7197045160       -0.5732743974
 H        -8.3528323104        3.5579270330       -3.5598092097
 H        -8.7612721822        4.9892856723       -4.4319537151
 H        -9.3183608515        3.1596097707       -5.8639712017
 H       -10.7795310087        3.8435205940       -5.3750233885
 H       -13.5143445040        0.4558068434       -6.8337978887
 H       -13.4129807355        2.1853852905       -6.8922542420
 H       -14.7553482635        1.5279372476       -6.1123549771
 H        -9.7837237422        0.9179002530       -6.8978947598
 H       -11.0349036382        2.1506046468       -7.1071098245
 H       -11.3328311322        0.5089565404       -7.5393643316
 H        -9.8439784698       -0.6914201390       -4.8502773465
 H       -11.4117255907       -1.1708052221       -5.7297439697
 H       -11.4286341501       -0.7312486829       -3.9459113379
 H       -10.3091108445        5.8077835489       -0.0927441588
 H       -11.5796610815        6.0723281535       -1.4186227311
 H       -10.5088135639        7.5166788847       -0.8491077566
 H       -10.1251923052        6.9465775359       -3.9858395274
 H        -8.4368253942        7.0080327313       -3.7124097140
 H        -9.3106547964        8.0584875347       -2.8162381329
 H        -3.2212168908        9.1229550459        2.8166500043
 H        -4.6896474939        9.8098104653        1.9312385588
 H        -3.2303688248        9.6065297288        1.0232815122
 H        -3.5030597642        5.7637433143        1.1977782703
 H        -2.3966020975        7.1254975012        1.7725674612
 H        -2.8315308874        6.8685514140       -0.0306402154
 H       -10.2456108251        6.1020574597        5.2181552973
 H       -10.7803312113        4.5069530763        4.9247927637
 H       -10.6499292771        5.6550348380        3.6488557888
 H        -7.3163681033        4.4337048074        5.9947343786
 H        -8.8305416267        4.9009270622        6.6263158391
 H        -7.7080355283        6.0978750915        6.1146079112
 H       -10.5434272576       -1.3380307893        3.1184356613
 H        -8.9247913912       -1.2337861902        2.4721630664
 H        -9.9307762959       -2.4577790716        1.7989804761
 H        -9.8356504132       -1.7892302059       -0.5379557270
 H        -8.5748948075       -0.7393173115        0.0840675481
 H        -9.9187718531       -0.1286059548       -0.9947207262
 H       -13.9489522027        3.4457114215        1.6160831250
 H       -15.4074463385        3.5439222593        2.6030914211
 H       -15.4380686972        4.3471741885        1.1471227623
 H       -17.6971741610        3.0623721610        0.4633481037
 H       -17.6351181848        1.9078314833        1.7068214893
 H       -17.4566237942        1.4708860787        0.0964506039
 Na      -11.6351865345        1.6282604000       -1.7120739575
