117

 C       -11.9590332454       -5.9869352048        2.3904054043
 C       -10.6583646815       -5.4555622731        1.6160853883
 O        -9.8490813528       -6.2530913329        1.1523875417
 C       -10.2742812749       -3.9031482056        1.6966243283
 C       -11.0180141855       -2.8803000060        0.6902542267
 O       -10.4253686427       -2.3458281457       -0.1944181342
 C       -12.6385846317       -2.7002881174        0.8982130037
 C       -13.3617583563       -2.7932551675       -0.4353346872
 C       -12.8560212685       -1.7752120590       -1.4787244246
 O       -12.3543861100       -2.2047683943       -2.5401193249
 C       -13.2535205773       -0.2520459172       -1.3195820391
 C       -11.9861134859        0.5543750448       -0.7936669120
 O       -11.9865887252        1.2171928955        0.2197439402
 C       -10.8138091063        0.4332759508       -1.8276911254
 C        -9.3450440449        0.6591376192       -1.2971935039
 C        -8.8556693990        2.1111592835       -1.5254114478
 O        -9.0835610959        2.9024841404       -0.6081747946
 C        -8.2158546229        2.5501588514       -2.8542813402
 C        -9.1343548801        3.7755844757       -3.4167167063
 O       -10.2688855928        3.9306563167       -3.0970195927
 C        -8.6658227486        4.7227517141       -4.4455933444
 C        -9.5874561876        6.0099244510       -4.5087434331
 C        -9.4322839546        6.8170615858       -3.2608657558
 O        -8.3777500345        6.7903190667       -2.6100588215
 C       -10.4941621781        7.8440926631       -2.7922173824
 C       -10.0875313258        8.4056619958       -1.4316552333
 O        -9.8842563527        7.6821546516       -0.4715656356
 C        -9.9977687185        9.9169122949       -1.1504759918
 C        -9.5396308392       10.2500301237        0.2380147492
 C       -10.5313916244        9.7328358683        1.2988381250
 O       -11.5800798367        9.2763251288        0.9075867108
 C       -10.0812426114        9.9941246925        2.8224531618
 C        -8.8492465100        9.1958993031        3.1766578621
 O        -7.7399259602        9.3951672529        2.6737319093
 C        -8.9344081714        8.1252403372        4.3295347515
 C        -7.8116411345        7.1806255092        4.2242225288
 C        -7.9451118865        6.2018069268        2.8812815070
 O        -8.7679037722        6.4012339278        2.0051507630
 C        -6.7904605179        5.0662312890        2.7182402653
 C        -5.9224114546        5.7551008165        1.4891110490
 O        -6.3767089550        5.8116818368        0.3955463785
 C        -4.4928940191        6.4401224946        1.7285959367
 C        -5.8900958013        4.8832261424        3.9601646753
 C        -7.4275496241        3.7430281971        2.2560308070
 C        -9.6852440751       11.5124431151        2.9333394281
 C       -11.3514117565        9.8353843115        3.6970575367
 C       -10.5899003561        9.0068855825       -3.8151723935
 C       -11.9299449077        7.2157467061       -2.5934387733
 C        -6.7346452810        3.1625697687       -2.4300951458
 C        -8.0412669356        1.3947018778       -3.8251535385
 C       -13.5595611870        0.2813708959       -2.7648792136
 C       -14.4908530358        0.1515283085       -0.4104744189
 C       -10.4037385135       -3.4152762242        3.1893218087
 C        -8.7431222630       -3.7071972237        1.2856007531
 H       -11.9514936863       -5.5652884656        3.3199942459
 H       -11.9658941611       -7.0596985903        2.4168283904
 H       -12.7685518556       -5.5256149901        1.8744255964
 H       -12.6328260041       -1.7225826025        1.2426654888
 H       -13.1911407995       -3.3524405834        1.6505439535
 H       -14.4519787361       -2.7152288395       -0.3641843764
 H       -13.2118435292       -3.7899576427       -0.7930490518
 H       -10.8821379313        1.0441836159       -2.7102482722
 H       -10.7984485055       -0.6552849818       -2.1621102968
 H        -8.5936030508        0.1047542554       -1.8508417369
 H        -9.3123178735        0.4973730581       -0.2323734561
 H        -8.4976774961        4.1697945084       -5.4309007995
 H        -7.6055714793        4.9164403125       -4.2009760724
 H       -10.6599676599        5.7590794272       -4.6698852542
 H        -9.2896574168        6.7389207103       -5.3963650809
 H       -11.0956557995       10.2345176790       -1.2621783325
 H        -9.3237580802       10.5359374948       -1.8090076369
 H        -9.5656272390       11.3600029491        0.3447128513
 H        -8.5754505204        9.8146761978        0.4065515335
 H        -9.8566562061        7.5861959109        4.1715405892
 H        -9.0590991762        8.5876618134        5.3074443265
 H        -7.9132866382        6.5599269627        5.1385475751
 H        -6.8006172813        7.6444683921        4.1717478372
 H        -4.2190972036        6.5769792682        2.7233918976
 H        -4.5230887453        7.3924093674        1.1052182817
 H        -3.7125399580        5.8499010570        1.2329883124
 H        -6.6165612219        4.8285132454        4.7894639360
 H        -5.1610079020        5.6628174581        4.2012362345
 H        -5.3318800531        3.9503416352        3.9825557641
 H        -7.0030558384        2.9475956618        2.8601557077
 H        -7.3576517688        3.5852881939        1.2258697659
 H        -8.4891479023        3.8722232401        2.4133129852
 H        -9.5225497333       11.7484553011        3.9798069598
 H       -10.6149975561       12.1014479739        2.7113287478
 H        -8.8442462820       11.8604326141        2.3973914236
 H       -10.9970353621        9.4279298889        4.6584545741
 H       -12.0451303518        9.1291197252        3.0889196349
 H       -11.7103144914       10.7983395425        3.9991087767
 H       -10.8426165366        8.6847255504       -4.8311889734
 H        -9.6923255642        9.5817083516       -3.9121017858
 H       -11.3247573832        9.6963354182       -3.4873516866
 H       -12.4712682706        7.1531183214       -3.5133286713
 H       -12.3817279964        7.7358040182       -1.8584572823
 H       -11.8556806025        6.2234204337       -2.2495761901
 H        -6.2859329209        3.4459574560       -3.4248448686
 H        -6.0663256297        2.5365606514       -1.9441063402
 H        -6.7676183995        4.0426331325       -1.8493148870
 H        -9.0012680894        1.1054704243       -4.2893396741
 H        -7.5871577257        0.6077870343       -3.2947496211
 H        -7.3747377511        1.6364914249       -4.6837661370
 H       -14.3415064989       -0.2864410941       -3.2941069537
 H       -12.5696902960        0.2123022656       -3.2457149452
 H       -13.8682132100        1.3536082182       -2.7291167514
 H       -15.4096309312       -0.1270492612       -0.8880808896
 H       -14.4684608352        1.2236889727       -0.4066983283
 H       -14.3389105395       -0.0578940317        0.6256379440
 H       -11.4659288249       -3.3689334028        3.4656117406
 H        -9.8850399335       -2.5155059699        3.3785636603
 H        -9.9968489357       -4.1636910108        3.8327097145
 H        -8.5488947727       -2.6489265744        1.1858972942
 H        -8.4749726677       -4.2020499052        0.3950281476
 H        -8.1407562237       -4.1360487038        2.1132602759
 Na       -8.7451572120        5.6055272065       -0.3136492830
