117

 C       -14.0675157869        0.5988539417        4.2609173177
 C       -14.8157566525       -0.4286550219        3.4452127367
 O       -15.0924382166       -1.5138754338        3.8616992749
 C       -15.3828481430       -0.0263830374        1.8951257238
 C       -14.1741902181        0.4659538439        1.0295437893
 O       -13.5772702742        1.4411886458        1.5476983914
 C       -13.7157903515       -0.1755642861       -0.2211338027
 C       -13.3316139832        0.9257834901       -1.2208124724
 C       -12.4314266906        0.5329270281       -2.4145483381
 O       -11.9913248899        1.4341404346       -3.0829649549
 C       -11.9796015252       -0.9947941801       -2.7833789310
 C       -11.0509342567       -1.5505795130       -1.6908889143
 O       -11.3967869010       -2.6014482247       -1.2157040771
 C        -9.7137124984       -0.9731611735       -1.4293631156
 C        -9.0862311111       -1.7075434968       -0.1924782345
 C        -7.8476662071       -0.9777947589        0.2712003263
 O        -7.0000613079       -0.6780951815       -0.5382585055
 C        -7.5817666293       -0.5450890117        1.8062151723
 C        -8.4604261411        0.7132136193        1.9891017512
 O        -9.6829472833        0.6025266846        1.8950870233
 C        -7.7576707938        2.0390056263        2.2903997198
 C        -8.7176856250        3.2544391277        2.5210729992
 C        -8.9955649781        4.0213474823        1.2062356072
 O        -8.2024591672        4.1241971282        0.3080959783
 C       -10.4600539618        4.7084140936        0.9719131021
 C       -10.0970705404        6.2725375897        0.8044969684
 O        -9.6611216464        6.7301057282       -0.2171298539
 C       -10.2857316279        7.2053194705        1.9841844431
 C        -9.8235680231        8.6329144754        1.7066218550
 C        -8.2892813545        8.9637586437        1.7739692475
 O        -7.4253927104        8.2750192100        2.2154236860
 C        -7.8520756422       10.2817966127        1.0454047873
 C        -7.1718590315        9.7512714212       -0.2544198518
 O        -7.8032596625        9.6471482586       -1.3018690429
 C        -5.7023940782        9.2197963166       -0.2222791512
 C        -5.3034514456        8.8083649467       -1.6502788377
 C        -6.0135679142        7.4478515195       -2.1195629638
 O        -6.3478045350        6.6134531845       -1.3014102556
 C        -6.2312228914        7.1792240266       -3.6461538827
 C        -7.7904282270        7.3287459831       -3.9466897906
 O        -8.5504325024        6.4615771395       -3.5660534304
 C        -8.3806124657        8.5137136787       -4.7883416238
 C        -5.2860733914        7.9912390590       -4.4665283137
 C        -5.9191022887        5.6506924264       -3.8379106211
 C        -9.0982542949       11.2347399707        0.6635155905
 C        -6.9144189341       10.9678217402        2.0019977222
 C       -11.1729068258        4.0610810893       -0.2317858409
 C       -11.2999299889        4.4447302729        2.1924641161
 C        -8.0271279533       -1.7380667854        2.6817664149
 C        -6.0316089199       -0.2392095631        1.9659105290
 C       -13.2589486233       -1.8221358833       -2.9069674682
 C       -11.1634627685       -0.9366941549       -4.1094027700
 C       -16.1408532600       -1.1884389288        1.3169431823
 C       -16.3379268703        1.2134047433        2.1214704955
 H       -14.8352415208        1.3154446262        4.6464490558
 H       -13.3055066540        1.1289451447        3.6495792329
 H       -13.7086508398        0.1021955038        5.2000420947
 H       -14.4907653148       -0.8157740928       -0.6065800128
 H       -12.8320104075       -0.8374795290        0.0615691764
 H       -12.8560429810        1.7774465009       -0.7330150315
 H       -14.2710704408        1.2922695246       -1.6776349681
 H        -9.6775856646        0.0724399415       -1.1999909656
 H        -9.1147093123       -0.9874532486       -2.3283830574
 H        -8.7026263524       -2.6755071430       -0.5420561348
 H        -9.8454906545       -1.8951985431        0.6374851938
 H        -7.0745237017        2.2367075780        1.4538235851
 H        -7.0990153423        1.9040283468        3.1161756065
 H        -8.2455715601        3.8948483155        3.2266100310
 H        -9.6549848183        3.0079118179        3.0561105431
 H        -9.8456690506        6.7924127867        2.9182921674
 H       -11.3485421709        7.2264877441        2.1586926812
 H       -10.2851044276        9.2670200810        2.4731697329
 H       -10.2466885812        9.0033205382        0.7999568162
 H        -5.6043074832        8.4946492880        0.5007392249
 H        -5.0046988203        9.9435305091        0.3242025211
 H        -4.2225535784        8.4835178142       -1.6049166505
 H        -5.5367542692        9.5383688354       -2.4141711916
 H        -8.8293446991        8.1403718183       -5.6976171255
 H        -7.6095048659        9.3003818056       -5.0834749909
 H        -9.2001703153        9.0487084460       -4.2500786448
 H        -5.4369571253        9.0885748282       -4.1849240859
 H        -5.3319863919        7.9375090144       -5.5546352245
 H        -4.3089836455        7.5959799304       -4.1306117984
 H        -6.6495073870        5.0490461730       -3.4565977378
 H        -4.9950237094        5.3660760513       -3.3969167332
 H        -5.9202907703        5.5496729951       -4.9706102971
 H        -9.7741890341       11.1411931607        1.5427500593
 H        -9.5711827873       10.8768510813       -0.2262599190
 H        -8.6645292184       12.2619195573        0.5142713296
 H        -6.4482137199       11.8670119078        1.5815467966
 H        -6.1018271740       10.3243774104        2.3541242627
 H        -7.4685676025       11.2826387988        2.8470637086
 H       -10.8214162850        4.4278539093       -1.1814926240
 H       -12.2605874199        4.2419403110       -0.2392475351
 H       -11.0684634280        2.9901481376       -0.2388700316
 H       -12.2944462679        4.8553393109        2.0330882466
 H       -10.8656488511        4.8934549699        3.0642558777
 H       -11.4590526015        3.3300958200        2.3136875493
 H        -9.0949233315       -1.7991730451        2.8363040268
 H        -7.5586671973       -1.5757947267        3.6088464513
 H        -7.6011889177       -2.6771958219        2.3180498327
 H        -5.4649105869       -1.1568045645        1.8878131371
 H        -5.7614169852        0.2446206847        2.9327131144
 H        -5.6058045345        0.3243603093        1.1245410809
 H       -13.2876974894       -2.2761123231       -3.8277112075
 H       -14.2093743927       -1.2884668811       -2.8987723672
 H       -13.1929761572       -2.6369706176       -2.1590602656
 H       -11.7268386350       -0.5616993092       -4.9528338258
 H       -10.6908278601       -1.9084143215       -4.2986224044
 H       -10.2955154135       -0.3048126971       -3.9812943596
 H       -16.5287473236       -0.8017465381        0.3483984394
 H       -17.0511753004       -1.5436864326        1.9133424798
 H       -15.4937822455       -2.0175060039        1.0537657684
 H       -16.8494057182        1.5037731418        1.2049237558
 H       -15.7448539158        2.0148034381        2.4807741630
 H       -16.9833521369        0.8208856381        2.8531410255
 Na       -8.3163998436        5.3807514037       -1.5638466344
