117

 C       -14.0996795753        1.7115538422       -0.2674283830
 C       -12.8467796593        1.3821186974       -1.0592114568
 O       -12.7888321316        2.1549407992       -2.0267411983
 C       -11.9069235680        0.0134919176       -1.0907570104
 C       -10.6037622214        0.3089690507       -0.2088254304
 O        -9.9745292468        1.3306831197       -0.3856067018
 C       -10.0084544050       -0.8950831221        0.6347548142
 C        -8.5177389794       -0.4910485552        1.0065877143
 C        -7.5958629164       -0.5170860040       -0.1919973667
 O        -7.8191451927       -1.3550211099       -1.1085347967
 C        -6.1307864748        0.3088592711       -0.1475543267
 C        -6.1041362740        1.2752075951       -1.4439117267
 O        -5.7778407152        2.3587101488       -1.4968078715
 C        -6.3335238026        0.4551652392       -2.8444262251
 C        -6.1240381639        1.4335966933       -4.0883015522
 C        -7.2587967678        2.4510202198       -4.3457038004
 O        -8.3095566010        2.5223157536       -3.7021932374
 C        -6.8810649527        3.5424120380       -5.5974436212
 C        -7.5559599372        4.8838528330       -5.4859728761
 O        -6.9439813426        5.8541653938       -5.2702296120
 C        -9.0910386291        4.7822291813       -5.6641028545
 C        -9.7780144913        6.0146045333       -5.0855774606
 C       -10.7685639425        5.6254845538       -3.9073225983
 O       -11.1659494221        4.4753493513       -3.9915720826
 C       -11.3538913167        6.5246646916       -2.9163882866
 C       -10.8628887852        6.0279520213       -1.5084217604
 O       -11.3811596402        4.9344833020       -1.1142589948
 C        -9.7202127972        6.7331613399       -0.6847366144
 C        -9.7460519882        6.1044745411        0.7158599245
 C        -9.1602668960        7.0291334352        1.6866029843
 O        -9.2198013745        8.2293267397        1.4851144765
 C        -8.6357301250        6.5108417248        3.1344766758
 C        -9.8245778841        5.6658157983        3.5954726426
 O        -9.7888571171        4.4459816407        3.4817474682
 C       -11.0400382485        6.3893926724        4.1102976667
 C       -12.2972119864        5.5191887495        4.2216539812
 C       -12.0910807478        4.7097644176        5.4614354018
 O       -10.9724258339        4.7317567193        5.9390688090
 C       -13.3464890521        3.9225661195        6.2738977259
 C       -14.5821797702        3.5577198697        5.3262614901
 O       -15.7054258579        3.6964758510        5.7618608306
 C       -14.1591196246        2.7503924977        4.0585750695
 C       -12.7767355948        2.5428890477        6.9005267721
 C       -13.7375793025        4.8736250305        7.4589028827
 C        -7.3096756554        5.7349222290        3.1662184683
 C        -8.4018532236        7.7926657213        3.9782657246
 C       -10.8481144835        7.9677783899       -3.0367486225
 C       -12.9224499469        6.5419281167       -2.9287307233
 C        -5.3361507664        3.7659752695       -5.5908652063
 C        -7.3499838418        2.8258177089       -7.0477373556
 C        -5.7570277339        0.9657001323        1.1665434897
 C        -4.9341122615       -0.6781063177       -0.4898517934
 C       -12.6637361958       -1.2121746038       -0.6203157858
 C       -11.5738538053       -0.1322572968       -2.6149567535
 H       -14.2214836923        2.7941443061       -0.3319802833
 H       -14.0300981941        1.4105258050        0.7718387995
 H       -14.9150053480        1.1995882610       -0.7963955771
 H        -9.9551998657       -1.9259662637        0.1120407027
 H       -10.5962411448       -1.2243937415        1.5334249880
 H        -8.0928978660       -1.2233577340        1.6970724230
 H        -8.5047010146        0.4884074387        1.5921352887
 H        -7.3218437649       -0.1806764205       -2.9242476851
 H        -5.3856552863       -0.2624804646       -2.9329244558
 H        -6.2257697338        1.0405771127       -5.0883460487
 H        -5.1070487572        1.9283104246       -4.0525664300
 H        -9.5638866075        3.8549141417       -5.2578593156
 H        -9.1570739377        4.8586570147       -6.7781092764
 H       -10.5035415651        6.5106224219       -5.7468767805
 H        -9.0471072541        6.6473267385       -4.6906068784
 H        -9.8176696655        7.8934448318       -0.4940646399
 H        -8.8222593213        6.6253689217       -1.2925255382
 H        -9.3419736604        5.1228725532        0.7359557186
 H       -10.8537933790        6.1616890023        0.9479951062
 H       -11.1629896377        7.3961918887        3.5604667170
 H       -10.7323286443        6.6803473051        5.0819368309
 H       -12.4343676241        4.8270491735        3.3934491015
 H       -13.2433394439        6.0549228225        4.4449233551
 H       -15.0866316756        2.3175111577        3.6964571290
 H       -13.4881986146        1.9660426140        4.6154112834
 H       -13.6393873421        3.4164120739        3.4529104391
 H       -13.1107867887        2.1586246244        7.7870053643
 H       -11.7238526387        2.6471861307        7.1847222148
 H       -12.5293614255        1.8561942025        6.0990072428
 H       -12.9160830901        5.4853884641        7.4537233446
 H       -14.0745600831        4.3866362762        8.3397066167
 H       -14.5208585534        5.3963789533        7.1187490823
 H        -7.1314904027        5.4513100062        4.2857073035
 H        -6.4286012661        6.3269348678        2.7236285613
 H        -7.2898478140        4.8460129045        2.5625840651
 H        -8.2465494139        7.5473072808        5.0380210876
 H        -9.2636462993        8.3538606680        3.7983845965
 H        -7.6836772175        8.3812937209        3.4839993920
 H       -11.1271514366        8.7612480925       -2.2680209355
 H       -11.1824721300        8.4224583081       -3.9090345515
 H        -9.7529200959        7.9808328879       -2.9151845780
 H       -13.1603620718        6.9760356746       -1.9959550069
 H       -13.2950413310        5.5090858628       -2.9864627116
 H       -13.2354566939        7.1809202946       -3.7277377720
 H        -5.2530216827        4.1181849239       -4.5877771255
 H        -5.1104018749        4.6403326978       -6.1299018377
 H        -4.7229498552        3.0441419262       -6.0838374295
 H        -6.8482178286        1.8356398221       -7.1571945585
 H        -7.0460971630        3.4638514555       -7.8997878835
 H        -8.4408193671        2.7222617575       -7.2681462300
 H        -4.8652979084        1.6563720788        1.0631983809
 H        -5.8362969175        0.1671685933        1.9401292547
 H        -6.6420622912        1.5278934582        1.4646688573
 H        -4.9740481206       -1.3518263004        0.3591726002
 H        -3.9784446544       -0.1827304129       -0.5606290626
 H        -5.1728958080       -1.3634919053       -1.2563646330
 H       -13.6254894801       -1.1120871774       -1.1180603064
 H       -12.8100767977       -1.1808134401        0.3999068602
 H       -12.0992060535       -2.1005555932       -0.8009946889
 H       -12.2223056940        0.2365568326       -3.4245467286
 H       -11.4170292964       -1.1872742253       -2.8150865956
 H       -10.6414090896        0.4637220014       -2.7891177011
 Na      -10.3701828890        2.8084844867       -2.5059457029
