117

 C       -13.9333521952        0.1258401167        4.2271236224
 C       -14.5473641503       -0.8524219827        3.1246265793
 O       -14.6531247857       -2.0469630562        3.2046059558
 C       -15.0792498698       -0.1041111104        1.8350429026
 C       -13.8881026319        0.4454270063        1.0301546753
 O       -13.1649176569        1.2679490747        1.5841491449
 C       -13.6253447734       -0.1038403977       -0.3946292443
 C       -13.1234228191        0.9847104046       -1.3387260364
 C       -11.9356453753        0.5911225598       -2.2873849005
 O       -10.9449083527        1.3521976378       -2.3033800849
 C       -11.8372276759       -0.8074739383       -3.0504628778
 C       -11.1238196496       -1.6934128513       -1.9910795395
 O       -11.6646859191       -2.5247082278       -1.2900732780
 C        -9.6379837860       -1.2816265585       -1.7280499188
 C        -9.3192755070       -1.2730067574       -0.2440044157
 C        -7.9352945459       -0.8153055894       -0.0180484751
 O        -7.1003969552       -0.7632037389       -0.9170135459
 C        -7.4973449784       -0.4547565038        1.4400308924
 C        -8.3010388893        0.7054979556        2.1152677891
 O        -9.3707074880        0.4763051499        2.6545261655
 C        -7.6954377413        2.0505887407        2.0219930522
 C        -8.6021885143        3.2693186385        2.4119690687
 C        -9.1883170902        3.9512288960        1.2016991090
 O        -8.5808373611        4.0488733700        0.1672857874
 C       -10.5417721794        4.7438943345        1.3614479448
 C       -10.4417845983        6.2968524214        1.0098166741
 O       -10.3960015726        6.6930573703       -0.1136247029
 C       -10.4454981775        7.3186592817        2.2261280547
 C        -9.9491365641        8.6858740489        1.8838326843
 C        -8.4594872902        8.8409653502        1.7242717958
 O        -7.6887948656        7.9372371062        1.9993771154
 C        -7.8226238783       10.2026734403        1.1411556308
 C        -7.0794660476        9.7405637430       -0.2011284601
 O        -7.5697646059        9.9713160308       -1.2754326525
 C        -5.6015743783        9.2093327428       -0.1677684180
 C        -5.2650759530        8.5751011914       -1.4927246042
 C        -6.3103803237        7.5379143888       -1.8985005379
 O        -7.1525679389        7.1740328527       -1.1168113804
 C        -6.3778821980        7.0394036761       -3.3476278234
 C        -7.8419747149        7.3924473516       -3.8798201440
 O        -8.6748085311        6.6486964231       -3.4353505535
 C        -8.2969908607        8.5221453661       -4.7295090493
 C        -5.2659750161        7.6021069974       -4.3355410196
 C        -6.2000134546        5.5335625691       -3.3912034368
 C        -8.8179299913       11.3310484513        0.6843623231
 C        -6.8102377866       10.8791390084        2.0847612046
 C       -11.4905015479        4.1714762658        0.2468982819
 C       -11.3851456104        4.4813250133        2.6781936779
 C        -7.6170340294       -1.7472265860        2.3182533096
 C        -6.0158224731       -0.1193183387        1.3425484672
 C       -13.2988061605       -1.4381627386       -3.3736653983
 C       -11.1471897122       -0.6172884549       -4.3651831454
 C       -16.0775098033       -1.0989321958        1.1245137339
 C       -15.9505990675        1.1493632400        2.1975907862
 H       -14.1141980508        1.1879046712        3.9213777544
 H       -12.8706467781       -0.0849517935        4.3429978398
 H       -14.2942038268       -0.1993674705        5.1269921739
 H       -14.5427382962       -0.6921564536       -0.7593374834
 H       -12.8662112810       -0.8841175372       -0.3007382437
 H       -12.7107431642        1.8021712407       -0.7191679186
 H       -13.8986762133        1.4878972887       -1.9382161461
 H        -9.3711600147       -0.2435397108       -2.0843490031
 H        -8.9661349422       -2.0150137557       -2.1477785283
 H        -9.4955298865       -2.2884188492        0.1849104370
 H       -10.1077522275       -0.7291055008        0.2834051792
 H        -7.2619390369        2.2452734804        0.9810817073
 H        -6.8312899802        2.0689835504        2.7949989982
 H        -7.9925908401        4.0669077044        2.8672162499
 H        -9.2700501575        3.0589307832        3.1785196038
 H        -9.9010391494        6.8810511494        3.0924897503
 H       -11.5057337699        7.4101679653        2.5964283334
 H       -10.1869303350        9.3799252515        2.6771201894
 H       -10.4330910478        9.0652549287        0.9507413576
 H        -5.5385383732        8.4847319511        0.7561258153
 H        -4.8605046193        9.9832976397        0.1131465290
 H        -4.3047652424        7.9719214321       -1.4759723564
 H        -5.2908054848        9.2450077600       -2.4412129159
 H        -7.4729909277        8.9797787760       -5.3277663771
 H        -8.6968400366        9.2853215135       -3.9867763059
 H        -8.9617728914        8.2225292074       -5.4798784975
 H        -5.6267189161        8.5505790574       -4.7563676392
 H        -5.1631604898        6.8128291515       -5.1982289827
 H        -4.3268720348        7.8248922242       -3.8662367881
 H        -6.6769138237        5.0516198825       -2.5074687717
 H        -5.1710838968        5.3056611152       -3.4796879721
 H        -6.7492425444        5.1628588032       -4.2856496329
 H        -9.4563278264       11.5468438893        1.5477040989
 H        -9.3911439213       11.0537085894       -0.2051662308
 H        -8.1720913442       12.1840035794        0.4969337706
 H        -6.3053155193       11.6707864081        1.5673314239
 H        -6.1511671840       10.1925903378        2.5540636319
 H        -7.2967909902       11.3734857235        2.9651472960
 H       -10.8838244977        3.9102538747       -0.6115151456
 H       -12.2914045303        4.8376579222       -0.0591411196
 H       -12.0251500346        3.2610212927        0.4868896479
 H       -12.3612157104        5.0040323670        2.5888140617
 H       -10.9452542496        4.9725919605        3.5284977656
 H       -11.5186152184        3.4232114829        2.9001472495
 H        -8.6433589528       -1.8144545042        2.6660026992
 H        -7.0208508086       -1.6872980753        3.2161881200
 H        -7.3320452340       -2.5919221357        1.8129361774
 H        -5.4069421455       -1.0227566721        1.2621532266
 H        -5.6782192747        0.4054133405        2.2555404917
 H        -5.8199676618        0.5925464437        0.5598088809
 H       -13.0464169026       -2.3838964686       -3.8166270453
 H       -13.9916463372       -0.7705120111       -3.8751485480
 H       -13.8376958536       -1.6146281814       -2.4833384906
 H       -11.7418283696       -0.2010910381       -5.1827936291
 H       -10.8737710746       -1.6042352748       -4.7120246639
 H       -10.2671905565        0.0022910573       -4.3641302305
 H       -16.7626240736       -0.6461148273        0.3413833143
 H       -16.7346582185       -1.2701238393        2.0046489505
 H       -15.7355173582       -2.0902867965        0.9680216016
 H       -16.4560786305        1.4517111093        1.2346103944
 H       -15.2621813562        1.8957825572        2.4732402632
 H       -16.7223705313        0.9126792016        2.8608391814
 Na       -8.9846295531        5.6186892803       -1.5790286719
