117

 C       -14.8680877258        1.4691909861        4.2713153982
 C       -14.9777605102        0.1912854870        3.4430525852
 O       -14.3682299768       -0.7841169135        3.8159112705
 C       -15.6874572508        0.1973573996        2.0232163133
 C       -14.5417780716        1.0309668444        1.1396680678
 O       -14.5457672467        2.2683807893        1.1830227970
 C       -13.4527261190        0.3420125834        0.3091740026
 C       -13.8408753459        0.3599245330       -1.1977768112
 C       -12.6529713348        0.0465042336       -2.1128402916
 O       -11.8192148204        0.8913964912       -2.5295649147
 C       -12.3033153946       -1.4772184256       -2.2770811059
 C       -11.3626182145       -1.7373308010       -1.0314741155
 O       -11.7205428075       -2.5160127324       -0.1566825157
 C       -10.1903060677       -0.7684114221       -0.8229204755
 C        -8.8924944959       -1.4764320382       -0.5741732119
 C        -7.9166178021       -0.7580169336        0.3456169227
 O        -6.8896857191       -0.3821405965       -0.1839892634
 C        -8.1305051346       -0.5795555803        1.8711102820
 C        -8.6414191120        0.8713423231        2.0706663531
 O        -9.8367871127        1.1089524053        2.0291657978
 C        -7.6438830946        2.0288210896        2.3977186151
 C        -8.2623701314        3.4446525811        2.3313756065
 C        -8.6924415594        3.7448794145        0.8599950247
 O        -7.8759554539        3.4443578369       -0.0071708405
 C        -9.9915069062        4.6054000664        0.5401107923
 C        -9.5394405775        6.1116069908        0.4683165878
 O        -8.5398722551        6.4745696358       -0.1536739056
 C       -10.3278630872        7.1157723329        1.2559759287
 C        -9.9649056858        8.5409020471        0.7726072571
 C        -8.5961960774        8.9271707404        1.3566934361
 O        -8.1128033915        8.2749292194        2.2714212022
 C        -7.7833747738       10.1498353717        0.7373962725
 C        -7.1235140712        9.6770454632       -0.5616320130
 O        -7.7524876030        9.4015762593       -1.5747563443
 C        -5.6402807860        9.4303417433       -0.5496286040
 C        -5.1244638171        8.9728682541       -1.8799154710
 C        -5.6042174455        7.5542484605       -2.2719549664
 O        -5.7220726795        6.7188056428       -1.3859309452
 C        -6.0540874652        7.2860201417       -3.7161637349
 C        -7.6723431644        7.2201802696       -3.6876025109
 O        -8.2373200331        6.4127401683       -2.9499696843
 C        -8.4807755403        8.1410369844       -4.5704943112
 C        -5.4737282235        8.4033668793       -4.6746935405
 C        -5.6341446074        5.9123335456       -4.1673772923
 C        -8.8507179210       11.2234598149        0.2164412196
 C        -6.8411536820       10.7408035319        1.7385107317
 C       -10.6116431592        4.1907501056       -0.8958713584
 C       -11.1404063274        4.3384046365        1.5911761320
 C        -9.2079766333       -1.5365175053        2.3340489446
 C        -6.7640653413       -0.8773575042        2.6124699275
 C       -13.5420870790       -2.3401435393       -2.1817933140
 C       -11.5294417096       -1.6647879595       -3.6166149525
 C       -15.8613734327       -1.2094086921        1.4943020301
 C       -16.9716562059        1.0287975605        2.0434877565
 H       -15.9123691389        1.4546680833        4.7283646585
 H       -14.8612325257        2.4178547927        3.6144437902
 H       -14.1182190352        1.3932687220        5.0237150439
 H       -13.2183812115       -0.6105160292        0.6906353743
 H       -12.5502812655        0.9571991840        0.4081285996
 H       -14.2213312761        1.3777888751       -1.4404284143
 H       -14.6577617140       -0.3097828047       -1.4410457720
 H       -10.5835854472       -0.3104303360        0.0830557521
 H        -9.9995794378       -0.0027669843       -1.6244392295
 H        -8.3963534553       -1.6474294198       -1.4681915172
 H        -9.0212667240       -2.4879274098       -0.1676247252
 H        -6.8245803786        1.9275057881        1.7372950870
 H        -7.3313139950        1.8805329904        3.3809134302
 H        -7.4404031579        4.0594438380        2.7620668977
 H        -9.1332714358        3.3889880284        3.0275604103
 H        -9.9843960371        7.0073335463        2.2594365672
 H       -11.4002621978        6.9288155112        1.2027803871
 H       -10.7538059063        9.2228900642        1.1908816024
 H        -9.9615103447        8.6305926888       -0.2848640124
 H        -5.5238244802        8.7019438880        0.1989554208
 H        -5.0724450660       10.4312149991       -0.3090158916
 H        -4.0724755756        8.9435487645       -1.8337609079
 H        -5.3019165246        9.6410833635       -2.6534921281
 H        -9.4890956350        7.7511357135       -4.6788192567
 H        -8.1257007131        8.3410840077       -5.6023678459
 H        -8.5674425255        9.0972958138       -4.1557164994
 H        -5.8134161850        9.4438054215       -4.5973806473
 H        -5.8573268465        8.2176486219       -5.6685002886
 H        -4.4461948720        8.5254605997       -4.5864682721
 H        -5.5778094374        5.1477665278       -3.3516988305
 H        -4.6740958668        6.0187841106       -4.5959024757
 H        -6.2966800724        5.4050120892       -4.8770768115
 H        -9.5250621453       11.4867244835        1.0774477262
 H        -9.4177665644       10.7700353879       -0.5908426333
 H        -8.2631067632       12.0810252016       -0.2213665134
 H        -6.3158581353       11.6219969507        1.3696629203
 H        -6.1658405906       10.0653048049        2.2464151197
 H        -7.4112779904       11.1354753599        2.5462464398
 H       -10.0363541099        4.6617171780       -1.6802800156
 H       -11.6790281410        4.4764583710       -0.9666687773
 H       -10.5558813011        3.1351758169       -1.1018987398
 H       -12.0395259275        4.8891174139        1.3641914456
 H       -10.8720965455        4.6531089888        2.5657934584
 H       -11.3694186321        3.2318698550        1.5325699165
 H       -10.1542072654       -1.2190232998        1.8565055541
 H        -9.3491202014       -1.5575216817        3.3849479285
 H        -8.8725476833       -2.5109500439        2.0558541444
 H        -6.2711597127       -1.7660243035        2.2498193267
 H        -6.9223331175       -0.9921098797        3.7083607836
 H        -6.0959560640       -0.0172415321        2.5749327372
 H       -13.3733818308       -3.3357251859       -2.5403377941
 H       -14.3841399951       -1.8094179602       -2.6557398464
 H       -13.9341961978       -2.5107804467       -1.1730059101
 H       -12.1984555719       -1.6835587336       -4.4506235690
 H       -10.8943169072       -2.5486916679       -3.5786574607
 H       -11.0047415149       -0.7431020095       -3.7440510857
 H       -16.1055864829       -1.3228219606        0.4171640992
 H       -16.7181022634       -1.6983703416        2.0864003602
 H       -15.0390936585       -1.8397732039        1.7471904022
 H       -17.3554416045        1.1244072536        0.9873561409
 H       -16.6652488127        1.9888064198        2.3780351668
 H       -17.6924373406        0.5720777456        2.6425351279
 Na       -7.1119905523        5.0115553056       -1.2730657987
