117

 C       -14.2924260068        0.9640896450        4.2922549127
 C       -14.9412169580       -0.2216077982        3.5583092668
 O       -15.0991091758       -1.2932755037        4.0698566018
 C       -15.4890202530        0.0680234763        2.0397306493
 C       -14.2984812605        0.6475683399        1.1423593804
 O       -14.1027363269        1.8628535977        1.3055616501
 C       -13.6030105152       -0.1759242906        0.1299778523
 C       -13.4435204491        0.7232938761       -1.1421195210
 C       -12.5859416988        0.2928489855       -2.4146535550
 O       -12.2261793923        1.2485715757       -3.1365909406
 C       -12.1061847220       -1.1099202432       -2.7783319360
 C       -11.2412894642       -1.6182501343       -1.4567812670
 O       -11.6183858103       -2.5169208214       -0.7502141862
 C        -9.9407167535       -0.8099834447       -1.1221774821
 C        -8.8811085055       -1.6679927670       -0.4061715162
 C        -7.7356958237       -0.8676121344        0.2584527391
 O        -6.8007713238       -0.4729198618       -0.4100575869
 C        -7.7118115046       -0.5927862514        1.8934873152
 C        -8.4074136021        0.7731530133        2.0826928600
 O        -9.5823885694        0.8103803721        1.7605731805
 C        -7.7599736980        2.1130091685        2.5641516212
 C        -8.7662669215        3.3010528477        2.5566861118
 C        -8.9441742917        3.8182749041        1.1949870888
 O        -8.1103340369        3.6051826155        0.3450579718
 C       -10.2719499571        4.7075423299        0.8791328202
 C        -9.7386779277        6.1792993894        0.8127472720
 O        -8.9964138943        6.6349644539       -0.0148938801
 C       -10.1832381939        7.1029098865        1.9397424350
 C        -9.9923437623        8.5263678069        1.5450758642
 C        -8.5163122113        8.9482352390        1.6689916503
 O        -7.7099156448        8.2920719787        2.3109946507
 C        -7.9489471139       10.1990938754        0.8826967632
 C        -7.3179650691        9.6963253771       -0.4531510828
 O        -7.9612274372        9.6805117554       -1.4872049813
 C        -5.8029223717        9.1980908084       -0.4413530750
 C        -5.2500471197        8.7992644387       -1.8009001889
 C        -5.8971570170        7.4971318605       -2.2922547256
 O        -6.2611973593        6.6539736922       -1.4859566202
 C        -6.0739725523        7.2617000284       -3.8064100746
 C        -7.6229058845        7.3868628459       -3.9098455157
 O        -8.2519388074        6.4789643532       -3.4276781223
 C        -8.3058284529        8.5288917625       -4.5808112054
 C        -5.1319090307        8.2151862770       -4.7469591239
 C        -5.6529508573        5.7994364260       -4.2254263373
 C        -9.0530984518       11.2462993126        0.7027996673
 C        -6.8572700019       10.7951212405        1.8150506387
 C       -10.8958112197        4.3500620228       -0.5143037256
 C       -11.4229368840        4.4404587948        1.8956837332
 C        -8.5071713377       -1.6757216507        2.7305746639
 C        -6.2038844176       -0.5689446436        2.2785766332
 C       -13.2361400528       -2.1611611090       -3.0030949472
 C       -11.1209724079       -1.1306223028       -4.0262284223
 C       -16.1432056563       -1.2026682483        1.5502424085
 C       -16.6608956906        1.2021203687        2.1116523660
 H       -14.8938594016        1.0575374315        5.2095467898
 H       -14.1313515000        1.8802318783        3.7058703367
 H       -13.4414552862        0.5899894704        4.7566806380
 H       -14.1622459462       -1.1072202203       -0.0549419036
 H       -12.5676132150       -0.4034008862        0.5468858984
 H       -13.0352543013        1.6740261919       -0.7817375728
 H       -14.4715875385        0.9066669037       -1.5311405125
 H       -10.2058612256        0.0653993024       -0.5324204181
 H        -9.5408101310       -0.3334297500       -1.9985640513
 H        -8.5335307579       -2.3277625097       -1.2215171862
 H        -9.4014756719       -2.3202810430        0.3871514504
 H        -6.8076809895        2.3296629478        1.9692393665
 H        -7.3793669412        1.8187402031        3.5878215112
 H        -8.4560080786        4.0954153547        3.1569660896
 H        -9.7148186827        3.0006003026        3.0244162376
 H        -9.4554711152        6.9213033849        2.8092570285
 H       -11.2076578213        6.9094848705        2.2367130029
 H       -10.5872752106        9.1348681940        2.2430648745
 H       -10.3638421187        8.7305697486        0.5468011919
 H        -5.7957920247        8.4352331545        0.3131477707
 H        -5.1320639014        9.9268263252        0.1415992732
 H        -4.1477731324        8.4581697681       -1.6653351223
 H        -5.3449822569        9.5885196009       -2.6211556251
 H        -9.3804332187        8.3968030826       -4.6480591759
 H        -8.0958804549        8.6633486060       -5.7074539804
 H        -8.0504425925        9.4843765207       -4.1205368938
 H        -5.4113692099        9.3046641750       -4.7665667148
 H        -4.8369460225        7.7859369937       -5.7368570177
 H        -4.1523333358        8.1065804758       -4.3333890654
 H        -5.8751355374        5.0866595690       -3.4427996732
 H        -4.6296749370        5.6759479615       -4.4705022864
 H        -6.2814478321        5.6099768903       -5.1440804260
 H        -9.3106487516       11.6013981539        1.6854581133
 H        -9.7893877574       10.7256861195        0.1903561970
 H        -8.7106793781       12.1103466953        0.1511956384
 H        -6.1435273419       11.4467669035        1.2654183013
 H        -6.1510836201       10.0787174124        2.2460191218
 H        -7.3437799007       11.3781126232        2.6087519224
 H       -10.1062966888        4.3358522491       -1.2815955090
 H       -11.6058551164        5.1055782490       -0.9569823299
 H       -11.2869627849        3.3350576906       -0.4940540904
 H       -12.3115925752        4.9047490504        1.4935283964
 H       -11.1844952769        4.7564907402        2.8530621425
 H       -11.5965112770        3.3390653256        1.9839116875
 H        -9.5601338698       -1.6172491324        2.4576326967
 H        -8.3954316575       -1.3883781473        3.7384838806
 H        -8.2287734891       -2.6717571545        2.5366640178
 H        -5.6319144578       -1.2751929382        1.7294942474
 H        -5.9268862511       -0.7268050422        3.3376531271
 H        -5.7959393648        0.3553728814        1.9325382832
 H       -12.8892118891       -3.1486019047       -2.9034268377
 H       -13.5685919746       -2.2434307153       -4.0308671527
 H       -14.0080974111       -2.0165078568       -2.2373959304
 H       -11.6618232247       -0.7601743299       -4.8969898092
 H       -10.7484626359       -2.1438070863       -4.2598919423
 H       -10.2306587949       -0.5500085877       -3.8046965982
 H       -16.5493017866       -1.0437908053        0.5343439710
 H       -17.0273286185       -1.5164414884        2.1839842964
 H       -15.4821013028       -2.0172549446        1.4579499127
 H       -17.1059336043        1.3832932898        1.0888722396
 H       -16.1825342967        2.0456213413        2.5516288742
 H       -17.3152544976        0.8373409656        2.8346407182
 Na       -7.8513507751        5.1639319243       -1.6225244300
