117

 C       -14.7767377437        1.4953744529        4.2501662392
 C       -14.9105087080        0.1859180022        3.4669347357
 O       -14.5216592600       -0.8976773122        3.8027431462
 C       -15.5927409619        0.2106952289        1.9919533575
 C       -14.5237991495        0.9379561522        1.0817638983
 O       -14.5234776156        2.1291398788        1.3144931567
 C       -13.5557585428        0.2642087530        0.2080030474
 C       -13.8980001124        0.4551867593       -1.2514280402
 C       -12.6041329033        0.0793209703       -2.1228181594
 O       -11.9687702913        0.9507629285       -2.5975942266
 C       -12.2831979943       -1.4232946971       -2.3055940535
 C       -11.4012360803       -1.6814910659       -1.0168388262
 O       -11.6951004349       -2.5638106945       -0.2330016251
 C       -10.1884979746       -0.7743628751       -0.7755100100
 C        -8.8824849348       -1.5807723962       -0.5055070643
 C        -7.8175587212       -0.7699021603        0.2767108806
 O        -6.8013780468       -0.2848840376       -0.1947702097
 C        -8.0924947393       -0.5916539892        1.8734279563
 C        -8.6262727901        0.8570986662        2.1298976133
 O        -9.8118398178        1.1016827481        1.8795316278
 C        -7.6670126619        2.0349686403        2.4668118402
 C        -8.4026219788        3.3987922969        2.3001201605
 C        -8.7674812366        3.7636179175        0.8788446336
 O        -8.0106178209        3.5543532026       -0.0196039560
 C       -10.0152869675        4.5863157926        0.5807247503
 C        -9.5219822228        6.0832989818        0.5964983347
 O        -8.5063923840        6.3457372460        0.0287905205
 C       -10.3723710358        7.1021133629        1.3598215230
 C        -9.9582365237        8.5247821182        0.8958013368
 C        -8.6007112886        8.9053231512        1.3600812570
 O        -7.9837551957        8.3053619917        2.1977652753
 C        -7.8703420602       10.2308606133        0.7753204739
 C        -7.1527059211        9.6832870469       -0.5047890914
 O        -7.8277565537        9.4534219429       -1.5063737526
 C        -5.5376995989        9.2895645960       -0.4624577914
 C        -4.9880811992        8.9855315750       -1.8721618212
 C        -5.6170052316        7.6454011114       -2.2821629942
 O        -5.7203915412        6.7914268239       -1.4428907570
 C        -6.0769912740        7.3084447262       -3.7638711429
 C        -7.6557888913        7.2669338850       -3.6943659657
 O        -8.2332757321        6.3762181353       -3.0671296458
 C        -8.3849675774        8.2144525504       -4.6011109116
 C        -5.5443956596        8.3178602832       -4.8041697876
 C        -5.6898385800        5.8266769555       -4.1767259026
 C        -8.9513209257       11.2601902071        0.2756335058
 C        -6.9395355030       10.7678638940        1.8307210245
 C       -10.5819599738        4.1997362592       -0.8418368679
 C       -11.1271778303        4.3598900647        1.5976824531
 C        -9.1220745670       -1.5773945734        2.4057781283
 C        -6.7060245047       -0.8296820357        2.5100446738
 C       -13.5332241508       -2.2926579464       -2.1985590220
 C       -11.4072813040       -1.5505322814       -3.6271998870
 C       -15.8304103120       -1.2094117146        1.4586320613
 C       -16.8883844930        1.0668760145        1.9875187646
 H       -15.5607109110        1.5254607370        4.9866640739
 H       -14.7793613119        2.4175226037        3.6360674280
 H       -13.8193770610        1.3100873666        4.8307763014
 H       -13.5790615087       -0.7999449510        0.4560405109
 H       -12.5249735119        0.6318367036        0.4186010806
 H       -14.1120315493        1.5462117882       -1.4638262890
 H       -14.7885656502       -0.1110617634       -1.5368954758
 H       -10.5519898894       -0.2257289277        0.0841602824
 H        -9.9336781698       -0.0791990359       -1.5971974163
 H        -8.4779906411       -1.9603995779       -1.4695843558
 H        -9.0007898800       -2.5041988890        0.0571025643
 H        -6.8170443495        1.9136102575        1.8680304804
 H        -7.4019090596        1.9559968965        3.4778857580
 H        -7.6222293064        4.1116418262        2.6969129846
 H        -9.2113608569        3.3504116724        2.9832762837
 H       -10.2159515347        6.9917174291        2.3946790252
 H       -11.4545250282        6.9495436825        1.1029803444
 H       -10.6421537490        9.2146849709        1.4002820762
 H       -10.0619615896        8.6601388397       -0.1750105772
 H        -5.4447065083        8.4133441955        0.1518134136
 H        -4.9904664938       10.1417964793       -0.0416605206
 H        -3.9219207489        8.8905452272       -1.9110394524
 H        -5.2154904382        9.7047290528       -2.6259268711
 H        -9.3540888295        7.8821199455       -4.8505985300
 H        -7.9516461107        8.4258084691       -5.6037125133
 H        -8.4760154140        9.2448148858       -4.1450294672
 H        -5.8905683600        9.3645176332       -4.9471880525
 H        -5.7497073419        7.8838131818       -5.7551555051
 H        -4.4533779194        8.5637791548       -4.6204759570
 H        -5.9467685298        5.1148337817       -3.5228336011
 H        -4.6243812486        5.7912316913       -4.3811502831
 H        -6.2340886021        5.5068968937       -5.1088920110
 H        -9.4060723050       11.6544341704        1.1901410071
 H        -9.6722589449       10.8071696511       -0.3811614601
 H        -8.4162056866       12.0346461555       -0.2821386759
 H        -6.1574355591       11.4546348405        1.4855254844
 H        -6.4867961871        9.9163859756        2.3989530755
 H        -7.4331344808       11.2998436436        2.6174600620
 H        -9.9633459598        4.6798208081       -1.6254118796
 H       -11.5853204313        4.6503965212       -0.9165727653
 H       -10.6347899102        3.1221036933       -1.1097189811
 H       -11.9978205464        4.8659927622        1.3025806694
 H       -10.8520752297        4.8542577524        2.5398779739
 H       -11.3280746657        3.3014847876        1.7140609007
 H       -10.0357733013       -1.4520840849        1.8989972350
 H        -9.2910677155       -1.4013297080        3.4233721047
 H        -8.6975914618       -2.5960737362        2.3095816224
 H        -6.3140972122       -1.7863498605        2.1597772054
 H        -6.7016309945       -0.8707858630        3.5627641855
 H        -6.0039758544       -0.0108531300        2.2860142115
 H       -13.2976507144       -3.2436465309       -2.5610492127
 H       -14.4054501700       -1.9051563879       -2.6450998897
 H       -13.8612835661       -2.5088155431       -1.1445223400
 H       -11.9442220834       -1.7576062494       -4.5244526541
 H       -10.6639809555       -2.3311867030       -3.4471707235
 H       -10.9638623952       -0.5578359869       -3.7356782802
 H       -16.0675127275       -1.2740935361        0.3899764086
 H       -16.6454298786       -1.7104268017        2.0062465276
 H       -14.9672746199       -1.8881059780        1.6868356596
 H       -17.3337811062        1.0224061482        1.0599369583
 H       -16.5736735797        2.0568888433        2.2686731952
 H       -17.5639081047        0.6207593318        2.7097976285
 Na       -7.2324108847        4.9843558212       -1.3185832184
