117

 C       -14.4590045486        1.2693067832        4.3076083143
 C       -14.9671825299       -0.0004723630        3.4312898328
 O       -14.8835041217       -1.0736205219        3.9588169636
 C       -15.5419657413        0.1400356783        1.9898447623
 C       -14.4967390134        0.8004978498        1.0723215918
 O       -14.2015383020        1.9662040924        1.3956277571
 C       -13.6801741662        0.0630793912        0.0476430868
 C       -13.8381528582        0.5543329035       -1.3878048727
 C       -12.6627971117        0.2476159923       -2.3898967244
 O       -12.1852451251        1.1737653330       -3.0138995543
 C       -12.1365127780       -1.2266459340       -2.3827555799
 C       -11.2521560039       -1.6203350311       -1.1157636158
 O       -11.5383747976       -2.6214319868       -0.5038798523
 C        -9.9932631554       -0.7997279093       -0.8075736444
 C        -8.8556081112       -1.6731821472       -0.4171171946
 C        -7.7916507645       -0.8605745944        0.2622483024
 O        -6.9708256503       -0.1980884758       -0.3543821668
 C        -7.8558148658       -0.6835199784        1.9006703949
 C        -8.5124887448        0.7262397155        1.9481682477
 O        -9.6363410126        0.9198237260        1.4793857823
 C        -7.7684337558        1.9973896867        2.5624095775
 C        -8.5996286423        3.2418800639        2.5718836110
 C        -8.8906616644        3.6254996043        1.0579256857
 O        -8.1361638635        3.4208009116        0.1551446325
 C       -10.2051746532        4.5993198904        0.7933974319
 C        -9.5760724626        6.0673736645        0.8551804535
 O        -8.5727062406        6.3415748605        0.2608883293
 C       -10.3924402451        7.1499151306        1.5783553870
 C        -9.9520735910        8.5266947453        1.1676118502
 C        -8.5059517195        8.9024444083        1.5080294710
 O        -7.7874200843        8.1921582112        2.1602226434
 C        -7.8906623547       10.2592045160        0.8618401338
 C        -7.2136425978        9.7323199195       -0.3879797899
 O        -7.8905199499        9.6399267370       -1.4130951409
 C        -5.7128700223        9.2735241635       -0.4717814852
 C        -5.2430893636        8.9080115975       -1.8901664112
 C        -5.6969205251        7.5078704834       -2.3330621862
 O        -5.7440369250        6.5899286723       -1.5536933527
 C        -6.1325726027        7.3132691797       -3.7583022045
 C        -7.6427183497        7.3131558034       -3.9113793203
 O        -8.2983674247        6.3822514014       -3.4467197496
 C        -8.3343368797        8.5213911535       -4.5917493068
 C        -5.4367845186        8.2538234556       -4.6983034537
 C        -5.4994294170        5.8696820501       -4.1245323355
 C        -9.0108459962       11.2207806259        0.4127270523
 C        -6.8619523310       10.9017330331        1.7806285593
 C       -10.6557795657        4.4153054388       -0.6841904462
 C       -11.3724033252        4.2537781262        1.7306409284
 C        -8.8131948204       -1.6498487755        2.6421333849
 C        -6.4320451963       -0.5821439478        2.5021411178
 C       -13.3398117685       -2.1239647469       -2.4409140384
 C       -11.1610018067       -1.2333840094       -3.5954278010
 C       -15.9159010899       -1.2269333853        1.4800810701
 C       -16.8406574161        1.0643067352        2.1943538741
 H       -15.1995940275        1.2846730806        5.1072538572
 H       -14.7291586958        2.1121012631        3.6595494415
 H       -13.4967396829        1.2887047452        4.8139639478
 H       -13.9677994180       -0.9335004716        0.1063383352
 H       -12.6389525335        0.1485570982        0.3736758654
 H       -13.7035555722        1.6416571487       -1.2876513506
 H       -14.8182792545        0.3567501149       -1.7470397622
 H       -10.1566360982       -0.0460465376       -0.0276733010
 H        -9.7614458700       -0.2036645591       -1.7432778322
 H        -8.4105253933       -2.1284065902       -1.2476027444
 H        -9.2900581347       -2.5075602406        0.1531176888
 H        -6.9176305181        2.2101117992        1.8517031311
 H        -7.3522374013        1.7065144981        3.5231900648
 H        -8.0215364956        4.0557931494        3.0835717938
 H        -9.5019028573        3.0786021563        3.1946791690
 H       -10.2238867463        7.0153291689        2.6204699004
 H       -11.4729966056        7.0320285744        1.3323648139
 H       -10.6091675284        9.2222243496        1.7857178750
 H       -10.1642693763        8.7064038209        0.1359621852
 H        -5.5134867649        8.5089195743        0.2599598768
 H        -5.0210591889       10.1846717790       -0.1190385458
 H        -4.1417163367        8.9089278382       -1.9284819516
 H        -5.5420927669        9.5927634038       -2.6417985212
 H        -9.3135791948        8.6233557639       -4.3172214534
 H        -8.5568561608        8.4226012482       -5.6663082730
 H        -7.8273705488        9.4463986167       -4.4598670735
 H        -5.3971887948        9.2983515188       -4.3544387272
 H        -5.8977652381        8.1829595874       -5.6501609681
 H        -4.3843851146        8.0133152036       -4.8446796609
 H        -6.0446653627        5.0109365560       -3.8726284738
 H        -4.5193240102        5.8407402430       -3.6292530027
 H        -5.2460026484        5.8197947897       -5.2758919581
 H        -9.7748717277       11.2744504853        1.2131067038
 H        -9.2867326372       10.8118857318       -0.5223416691
 H        -8.6191566795       12.2725452682        0.3433870218
 H        -6.4317787778       11.8095230051        1.3588789440
 H        -6.0054473005       10.2821232774        2.0702828548
 H        -7.3082685083       11.1485648547        2.6915173881
 H        -9.8657772765        4.1624710097       -1.3550049562
 H       -11.1354756273        5.2972176970       -1.1099699605
 H       -11.2941801318        3.5605798746       -0.7199033686
 H       -12.2114376764        4.8342963061        1.3830428736
 H       -11.2333563001        4.3831404331        2.8067952272
 H       -11.5804937551        3.1558346950        1.5020363265
 H        -9.8948427702       -1.6045157979        2.3409811171
 H        -8.6837972704       -1.4550112387        3.7069954366
 H        -8.4716466283       -2.6885955119        2.3480382889
 H        -5.9714312445       -1.5184000184        2.8051804085
 H        -6.4322888103        0.0005381112        3.4351254295
 H        -5.7580188878       -0.0240274323        1.8239051881
 H       -13.1744737794       -3.0917202163       -2.0374189971
 H       -13.6113788424       -2.3344451817       -3.5130655931
 H       -14.2904913482       -1.7044449037       -1.9197551804
 H       -11.6816374327       -0.8741981802       -4.4708505354
 H       -10.7216495561       -2.2240774136       -3.8554274898
 H       -10.4116880846       -0.4729005933       -3.3277567755
 H       -16.2425335451       -1.1470860476        0.4726981847
 H       -16.7632417711       -1.6630457276        2.0432782524
 H       -15.1375586496       -1.9407540984        1.5024709184
 H       -17.3705227636        0.9674726779        1.2301047258
 H       -16.4672962388        2.0545052969        2.5125614975
 H       -17.4806116303        0.6098208804        2.9632988684
 Na       -7.6754637586        5.2190102224       -1.5421489511
