117

 C       -15.1022202596        1.4855387313        4.3065111714
 C       -14.9210555687        0.1814741109        3.4315333379
 O       -14.2447403770       -0.7543851194        3.8071125321
 C       -15.5756058204        0.3042537498        1.9866575539
 C       -14.6037968196        1.1600120078        1.1623686262
 O       -14.6367111605        2.3874370510        1.0953260430
 C       -13.4285866245        0.4149512413        0.3869530555
 C       -13.7669257666        0.4504157202       -1.1285061994
 C       -12.7030706525        0.0091843861       -2.0010739179
 O       -11.8927494805        0.8716017152       -2.4173605552
 C       -12.3558675034       -1.4904225261       -2.2684169354
 C       -11.4115633737       -1.6856905871       -0.9351500609
 O       -11.6745528107       -2.5379413931       -0.1408809207
 C       -10.1770147297       -0.7345772402       -0.8286603967
 C        -8.8934974672       -1.5626403102       -0.6247954343
 C        -7.8093752980       -0.7720452942        0.2973097072
 O        -6.7926794330       -0.3195633634       -0.1362898875
 C        -8.2294202989       -0.5773233698        1.8530094629
 C        -8.6852860741        0.8837748081        2.1058100964
 O        -9.8504984020        1.1803416523        2.1167688225
 C        -7.5928934837        1.9944763309        2.3538110911
 C        -8.2656920241        3.4041560364        2.3112045966
 C        -8.6495586532        3.7345243700        0.8614778062
 O        -7.8538798026        3.3145600516       -0.0095340755
 C        -9.9041030926        4.5498746312        0.5181798803
 C        -9.5852062265        6.0830551628        0.4075343955
 O        -8.6485181108        6.4557395138       -0.2934898482
 C       -10.3920037655        7.1915600666        1.1392796333
 C        -9.9552903301        8.6024774550        0.7082861903
 C        -8.5797920820        8.9447727404        1.3507556743
 O        -8.1668841326        8.3400261729        2.3217725567
 C        -7.8454871868       10.1243751809        0.6936966352
 C        -7.0994439406        9.5190383020       -0.6331390891
 O        -7.7163373535        9.3530987730       -1.6556673657
 C        -5.5555338187        9.5121633913       -0.5479811443
 C        -5.0806758171        8.9904300612       -1.8563050499
 C        -5.6869417947        7.5784944654       -2.1935919466
 O        -5.5948887896        6.6872154966       -1.3536924083
 C        -6.1104900133        7.2557483361       -3.6912533159
 C        -7.6825828654        7.2285380113       -3.6563950269
 O        -8.1436896170        6.4153488228       -2.9073791201
 C        -8.5625327581        8.0862266669       -4.5059286124
 C        -5.5703220246        8.3360443228       -4.6044838936
 C        -5.4993008981        5.9413541939       -4.1947273921
 C        -8.8199083711       11.2902349107        0.2459645962
 C        -6.8236542152       10.7300134294        1.6533250705
 C       -10.4423013246        4.1923971524       -0.8607591783
 C       -11.0305199323        4.2842563317        1.5399104035
 C        -9.3500150410       -1.5979216784        2.3910976035
 C        -6.9174065415       -0.8838694752        2.6718295352
 C       -13.5443466113       -2.5207708299       -2.2716130176
 C       -11.6246045950       -1.8276209626       -3.6006053465
 C       -15.8545923724       -1.1402333132        1.5384732731
 C       -17.0117778912        1.0055980348        2.0782490103
 H       -16.1941719667        1.6601659362        4.5121065370
 H       -14.9049789346        2.2425542611        3.5415398619
 H       -14.4213554213        1.5950578087        5.1569274669
 H       -13.2312483251       -0.6165255962        0.6854357914
 H       -12.5467003062        0.9596184991        0.5975462547
 H       -14.0822704596        1.4055619733       -1.4642614706
 H       -14.6389468473       -0.1991491875       -1.3277603513
 H       -10.3839284375        0.0197392223       -0.0277242728
 H       -10.0455930770       -0.2585501505       -1.7893139766
 H        -8.4462246953       -1.8063728836       -1.5866311133
 H        -9.1210174697       -2.5184560236       -0.1702516916
 H        -6.9742798224        1.9290349237        1.4220069539
 H        -6.9707446870        1.8298375075        3.2800111766
 H        -7.4664195428        4.0289026002        2.6809448951
 H        -9.1593055192        3.4062998282        3.0004255582
 H       -10.2078515396        7.0628212650        2.2473950134
 H       -11.4161017281        7.0657820003        0.9417216717
 H       -10.7483355279        9.3167154558        0.9299859259
 H        -9.8168385906        8.5866573773       -0.3927350384
 H        -5.2750242239        8.9283852626        0.3896533231
 H        -5.2787130130       10.5768995426       -0.5255868750
 H        -3.9989029581        8.9023809326       -1.9744750172
 H        -5.3265336202        9.7012498294       -2.6798937786
 H        -9.6220605795        7.7180191700       -4.5056887639
 H        -8.2279831378        8.0958024547       -5.5028717778
 H        -8.5883289125        9.1191896472       -4.2771436942
 H        -5.9469188084        9.2998709180       -4.4530875056
 H        -5.9056321879        8.2807343201       -5.6319818044
 H        -4.5454499766        8.4580286543       -4.4692924058
 H        -5.3559602620        5.1784947576       -3.3196985605
 H        -4.5364432702        6.1244471142       -4.7001265130
 H        -6.1283428853        5.3830460250       -4.8246268596
 H        -9.5835120522       11.4174878818        1.0279667817
 H        -9.3100508806       11.0450672805       -0.7535586741
 H        -8.1433665164       12.1328567085        0.0937608374
 H        -6.4423769852       11.6532678232        1.2869443026
 H        -6.0383958560       10.0838483681        1.8978523290
 H        -7.2197129320       11.0070596296        2.6464110882
 H        -9.7407481946        4.4912842584       -1.6168168901
 H       -11.4433972854        4.5396651546       -1.0100104004
 H       -10.5140699546        3.1279922777       -0.9288688460
 H       -11.9748168802        4.8577803331        1.2936486934
 H       -10.7188383837        4.6734134974        2.5016310624
 H       -11.2612777040        3.2319114298        1.5597292230
 H       -10.3109104038       -1.1709928204        2.0586809934
 H        -9.3803872823       -1.6517076758        3.5220598645
 H        -9.1261301234       -2.6008441289        2.0933193290
 H        -6.5200033389       -1.8732265292        2.4208324925
 H        -7.1460222005       -0.8640805456        3.7778449299
 H        -6.1345896989       -0.1469737155        2.5658939573
 H       -13.2059311902       -3.6104733860       -2.3580486458
 H       -14.3272460672       -2.1564466941       -2.9793790698
 H       -14.1183469275       -2.5183566258       -1.3903754115
 H       -12.4064990797       -1.5965396498       -4.3421809630
 H       -11.4027024851       -2.8757060125       -3.5659399056
 H       -10.8307319531       -1.1662392582       -3.8834556689
 H       -16.1854564376       -1.1921986140        0.4878021611
 H       -16.6797944156       -1.5014492825        2.1271787177
 H       -15.0765452907       -1.8792409057        1.6914667446
 H       -17.3985432581        0.9834510233        1.0159779997
 H       -17.0023134135        2.0384358196        2.4310954967
 H       -17.5976374166        0.3074547101        2.6764568852
 Na       -7.0531562739        5.1027928170       -1.3606267424
