117

 C       -14.1050634534        1.8757563629       -0.1116093514
 C       -12.9409737002        1.4530689003       -1.1111319171
 O       -12.6724348004        2.1865652822       -2.0413179802
 C       -12.0253509011        0.1600568954       -1.0275871861
 C       -10.5690827550        0.3585743754       -0.2880860726
 O        -9.8929229814        1.3672384011       -0.3437960440
 C       -10.0007216360       -0.8580066678        0.4935952270
 C        -8.6251778366       -0.7145861309        1.1250923254
 C        -7.5589030030       -0.7158056202       -0.0612876356
 O        -7.9154619706       -1.2502702467       -1.0641470740
 C        -6.2713703780        0.2041738377       -0.1048397041
 C        -6.0517647892        1.2062524560       -1.4191511973
 O        -5.8202219174        2.4287001491       -1.3359194909
 C        -6.4678055773        0.5446377632       -2.8225486861
 C        -6.0753846898        1.5507779980       -3.8965943196
 C        -7.2951124651        2.3336101584       -4.4681986279
 O        -8.2513429658        2.5803382497       -3.7865418167
 C        -6.9089521125        3.3239610666       -5.6962145438
 C        -7.6123049870        4.7886835620       -5.4930083040
 O        -7.0020540673        5.7833991099       -5.0676423826
 C        -9.0986797162        4.9033397528       -5.7453449955
 C        -9.7982722368        6.0414951981       -5.1283997938
 C       -10.8683225487        5.4373067324       -4.0520541730
 O       -11.1064895039        4.2973630301       -4.0257059700
 C       -11.3682516008        6.5540151198       -2.9006932420
 C       -10.7752907350        5.9888998167       -1.6072728079
 O       -11.0609056553        4.8718214336       -1.2393098813
 C        -9.8065455164        6.6821100120       -0.7542193059
 C        -9.6632856416        6.0271673512        0.6779345558
 C        -9.0671445490        7.0757049696        1.6914242926
 O        -9.1508441662        8.2909855324        1.4342859338
 C        -8.5271066527        6.5409928866        3.0919488783
 C        -9.7201221741        5.5661097768        3.5842584021
 O        -9.7070038282        4.3363814771        3.4162926133
 C       -10.9823235087        6.3692965135        3.9320918955
 C       -12.2615265386        5.5703169325        4.1370574655
 C       -12.1322976676        4.7105294286        5.4540970856
 O       -11.1182662632        4.5837193957        6.0775361593
 C       -13.3419278472        4.1703694264        6.2658603471
 C       -14.5379382254        3.5812879837        5.4020407031
 O       -15.6780413520        3.8931553477        5.7002895535
 C       -14.2263842178        2.7365168912        4.1094952106
 C       -12.8385304698        2.8313654772        6.9415152417
 C       -13.7970996138        5.0243441974        7.4156791164
 C        -7.1390380436        5.8239599218        3.0503688422
 C        -8.2708930168        7.7827359694        4.0190015339
 C       -10.9849780545        8.0431967493       -3.3040375206
 C       -12.9385358283        6.3612723352       -2.8712109109
 C        -5.3207770142        3.5886663874       -5.6028702487
 C        -7.2161709198        2.7939255450       -7.1218293900
 C        -5.9966642481        0.8395256097        1.2356046190
 C        -4.9691306665       -0.6788651954       -0.3435940818
 C       -12.7578035516       -1.0427581021       -0.4734337297
 C       -11.5565118195       -0.1224926522       -2.5305246733
 H       -13.9142478800        2.9576306852        0.1095165549
 H       -13.8342672270        1.3094188344        0.8057993591
 H       -15.1034714401        1.7456352175       -0.4417092715
 H        -9.8212956394       -1.7142340007       -0.1465246443
 H       -10.6492585744       -1.4462304494        1.3175781338
 H        -8.5359743871       -1.5683553062        1.8200213804
 H        -8.6566953633        0.1981875994        1.8231787815
 H        -7.4933346345        0.2503413758       -2.8735667067
 H        -5.7525626535       -0.3413920833       -2.9863661030
 H        -5.6613231546        1.1364144083       -4.8212084764
 H        -5.3282068341        2.2927982480       -3.5487483431
 H        -9.5815926969        3.9968192668       -5.2734435940
 H        -9.2197416964        4.9059930012       -6.8434631342
 H       -10.5383288928        6.6545171267       -5.8090665389
 H        -9.1358433880        6.6944222421       -4.5547011677
 H       -10.0468256057        7.7379499404       -0.6959146887
 H        -8.7599452721        6.6951754988       -1.2750708137
 H        -8.8359796246        5.3194868776        0.4805508838
 H       -10.5535934554        5.5833889737        0.9369402202
 H       -11.0394218592        7.0003666056        3.1061349170
 H       -10.7869171565        7.0734413037        4.7952823710
 H       -12.2517466825        4.7239962644        3.4451144416
 H       -13.2192886390        6.1190901890        4.1013004123
 H       -15.1661402886        2.8368683305        3.6377890729
 H       -13.9127429836        1.7429419230        4.3409583791
 H       -13.4360808296        3.4257738966        3.6045518493
 H       -13.2829345744        2.5417359481        7.8989080521
 H       -11.8480416890        2.8197963201        7.2151750517
 H       -12.7651562660        1.9784160850        6.2843437073
 H       -12.8761713645        5.2871191421        7.7685228573
 H       -14.5390991102        4.4448243066        8.0279741489
 H       -14.2957491855        5.9230072222        7.0874789109
 H        -7.1374191531        5.3298275246        4.0968808929
 H        -6.3091274005        6.4575840825        2.9616904570
 H        -6.9940960942        5.0590693046        2.3010974829
 H        -7.8743686489        7.3943501815        4.9230157859
 H        -9.1429622126        8.3949506655        4.1140597798
 H        -7.6376063338        8.4479523232        3.4332904015
 H       -11.3665128213        8.8718588477       -2.7463805243
 H       -11.2511073299        8.2706622064       -4.3343596312
 H        -9.9139051817        8.1262366452       -3.0751041836
 H       -13.2878710190        7.0707069743       -2.1150185021
 H       -13.1509763807        5.3779312092       -2.5232844733
 H       -13.2819434649        6.5681433185       -3.9027506576
 H        -5.2050644683        4.2755327470       -4.7583167447
 H        -4.8643990152        4.1176606347       -6.4648839610
 H        -4.7837299673        2.6527523336       -5.7667684459
 H        -6.9302075830        1.7681793144       -7.2412740567
 H        -6.6769708266        3.4171092297       -7.8291751158
 H        -8.2371155317        2.9161386028       -7.5143515548
 H        -4.9280458793        1.2551072833        1.1162244574
 H        -6.3412534667        0.2712711187        2.0671058927
 H        -6.6032076498        1.7666186511        1.2690594368
 H        -5.0103724794       -1.4724821843        0.3799927635
 H        -4.1411419242       -0.0736624894       -0.2097110136
 H        -4.9825736347       -1.2991081169       -1.2995081519
 H       -13.5987338574       -1.2400631121       -1.1308711892
 H       -13.1705494245       -0.8039488029        0.4670514071
 H       -12.0624717335       -1.8771854276       -0.2998174816
 H       -12.3769843351       -0.0832123906       -3.2877603671
 H       -11.1056218523       -1.1670081431       -2.5938407069
 H       -10.9264481153        0.6125695282       -2.9075796875
 Na      -10.4499777118        2.7628425879       -2.4270786391
