117

 C       -14.1862261565        0.8644501974        4.3590060041
 C       -14.9758831839       -0.1609326006        3.5137492664
 O       -15.1413258227       -1.2772927607        3.9663295180
 C       -15.5098428605        0.0421624348        2.0714044429
 C       -14.3330431080        0.6090159933        1.0811481391
 O       -13.9823301142        1.7516412596        1.3045281150
 C       -13.6028469144       -0.2546408830        0.0604224198
 C       -13.3311240774        0.6545840580       -1.1190918449
 C       -12.4905054340        0.3343810042       -2.3871220567
 O       -12.2129990027        1.1954755276       -3.1296698331
 C       -12.0466420242       -1.1431478433       -2.7287983603
 C       -11.1903998943       -1.6098286508       -1.5958433525
 O       -11.6145247381       -2.4835933999       -0.8792029570
 C        -9.9247324225       -0.8335816762       -1.2387284623
 C        -8.9475585353       -1.6276910759       -0.3960777312
 C        -7.7328844766       -0.8943057959        0.2729182761
 O        -6.8138350709       -0.5608546008       -0.4314582265
 C        -7.6876146207       -0.5186150064        1.7691384516
 C        -8.4709680901        0.7395469556        2.0343063939
 O        -9.6846760011        0.7436973170        1.8650522990
 C        -7.7449798810        2.0300885877        2.5372841700
 C        -8.7309897400        3.1742669366        2.6228193441
 C        -9.0043691929        3.8533245532        1.2082054985
 O        -8.2165282617        3.7451198769        0.3023892195
 C       -10.2562663154        4.6799901583        0.9292633184
 C        -9.8114257384        6.2173727947        0.7980727039
 O        -9.1791556352        6.5366025472       -0.1891790298
 C       -10.1769994126        7.1813132239        2.0239142244
 C       -10.0001786634        8.6463387316        1.7700937307
 C        -8.4695972681        8.9930502706        1.7566862794
 O        -7.7518489304        8.2213144510        2.3057883552
 C        -7.9225751664       10.2351586344        1.0010149847
 C        -7.3182849990        9.6722853133       -0.3720557759
 O        -7.9602318338        9.7390099791       -1.4040989028
 C        -5.8184136441        9.1575202779       -0.3936724459
 C        -5.2450816123        8.7934723512       -1.7671951187
 C        -5.8594524722        7.4678621741       -2.3158663173
 O        -6.2927485399        6.7070637247       -1.4903293705
 C        -6.0510015554        7.1734635220       -3.8322512754
 C        -7.6836249370        7.3240442855       -4.0173067073
 O        -8.4054237744        6.5541946572       -3.4021041994
 C        -8.2800704046        8.5343870195       -4.6294291842
 C        -5.2002343700        8.1976183558       -4.6682035361
 C        -5.6416276135        5.7602106034       -4.0938827735
 C        -9.0763089732       11.2402914085        0.6040233949
 C        -6.7639027136       10.9000664646        1.8263901705
 C       -10.8102181747        4.2610845391       -0.4366672200
 C       -11.3788088693        4.4108152237        1.9545829713
 C        -8.3968418484       -1.5660541676        2.6791934583
 C        -6.1741946726       -0.4104102087        2.2671984943
 C       -13.2330675028       -2.0739283823       -2.9919694759
 C       -11.1625853947       -0.9979297629       -4.0094096394
 C       -16.1235521901       -1.2691875626        1.4311741831
 C       -16.5470646186        1.2277653367        2.1739010330
 H       -14.8369205718        1.0665683146        5.1343132033
 H       -13.9728292167        1.6962818391        3.7670929137
 H       -13.3573337925        0.4407588665        4.9708711079
 H       -14.2148516653       -1.0995274555       -0.1822131989
 H       -12.6252042397       -0.5939856920        0.4940711549
 H       -12.8727268583        1.5681457659       -0.6619345607
 H       -14.2968618691        0.9350186519       -1.5026637072
 H       -10.2646026969        0.0383190126       -0.6874884376
 H        -9.3944720920       -0.2926960976       -2.0775245087
 H        -8.6765912799       -2.4046562632       -1.0991011422
 H        -9.5109385866       -2.0886032973        0.4325228460
 H        -6.9105868976        2.2559370315        1.7639716096
 H        -7.1618504117        1.8366240426        3.5031566417
 H        -8.3434953900        3.9407003352        3.2991283750
 H        -9.6136573353        2.8594255406        3.1487851184
 H        -9.5164464094        6.8965956730        2.8402279290
 H       -11.2759025658        6.9967737319        2.3032540113
 H       -10.5544737061        9.2475387339        2.5542983852
 H       -10.4749740326        8.8971553557        0.8315060832
 H        -5.6677028663        8.4672210488        0.4371837333
 H        -5.2088248063       10.0098259303        0.1208204348
 H        -4.1380372002        8.5026693849       -1.6153341829
 H        -5.3603418230        9.5957005398       -2.5347246282
 H        -9.2412378436        8.3177191753       -4.9900538628
 H        -7.8225619599        8.9398553098       -5.5508412354
 H        -8.3256498130        9.3629302086       -3.8834704342
 H        -5.5328598554        9.2296626703       -4.5217062442
 H        -5.1597580343        7.9545756342       -5.6580709146
 H        -4.1226163742        8.0293590626       -4.4739948221
 H        -5.8146326806        5.2546761545       -3.2035023497
 H        -4.5512848707        5.5750827512       -4.3109461832
 H        -6.2965664657        5.3384355183       -4.9321990405
 H        -9.3832199140       11.7851945232        1.4726753754
 H        -9.8154031122       10.6715081770        0.1379766290
 H        -8.6336445167       11.9388034123       -0.0880456167
 H        -6.0847628514       11.5270360092        1.2159913242
 H        -6.0199627483       10.1861984615        2.2556427737
 H        -7.1964669214       11.4940585475        2.5965638776
 H       -10.0724927498        4.5066183280       -1.2153359080
 H       -11.6729200087        4.8500327009       -0.7890955622
 H       -10.9781174817        3.1720287739       -0.4934454642
 H       -12.2191690181        4.9718281140        1.6660249923
 H       -10.9530442719        4.7683930903        2.9010174851
 H       -11.6522908678        3.3623694024        2.0972993345
 H        -9.4564690486       -1.6202920053        2.4665907703
 H        -8.2220604899       -1.2919067154        3.7042270697
 H        -7.9827004576       -2.6065151104        2.4315902958
 H        -5.5324873593       -1.2182031684        1.9663135539
 H        -6.0929959613       -0.3217676103        3.3168875395
 H        -5.6796838462        0.4325839738        1.7746360289
 H       -12.9892834936       -2.9980678421       -3.4474012245
 H       -13.7084248440       -1.6964905545       -3.8775858723
 H       -13.8899886550       -2.2664458343       -2.0779257442
 H       -11.7800735797       -0.6861590750       -4.8410015581
 H       -10.5133709837       -1.8692644395       -4.2809514821
 H       -10.4233230410       -0.2222911377       -3.7398262515
 H       -16.4907018241       -1.1399128734        0.4483902979
 H       -16.9650029348       -1.6311203966        2.0105959995
 H       -15.3754505951       -2.0593266002        1.3827370997
 H       -16.9221967493        1.4197910249        1.1957210407
 H       -15.9764673629        2.0753593643        2.6399842327
 H       -17.2762875079        0.8727769729        2.9533524300
 Na       -7.9149192779        5.1604428801       -1.6940297552
