117

 C       -14.5881948074        1.3382335921        4.1850438054
 C       -14.9640446302       -0.0086261138        3.4738992334
 O       -14.7319382803       -1.0925774130        3.9493109461
 C       -15.5764247219        0.1726757428        2.0151302451
 C       -14.4714864676        0.9360703449        1.1576041363
 O       -14.1665219883        2.1353798953        1.2689767062
 C       -13.6902351108        0.1323330706        0.0544357257
 C       -13.9495278239        0.7328499731       -1.3422734398
 C       -12.7584246982        0.3157310461       -2.1448336418
 O       -12.1522125727        1.1439632230       -2.8709980708
 C       -12.2277821621       -1.2295472914       -2.2895137222
 C       -11.3371839801       -1.6490761937       -1.0898449641
 O       -11.4986934232       -2.6217080131       -0.3775971630
 C       -10.0603740041       -0.8319537451       -0.8148393923
 C        -8.8163619013       -1.7025595061       -0.5053758285
 C        -7.7910667725       -0.8463420299        0.3323565307
 O        -6.9687991701       -0.2023362406       -0.2721626596
 C        -7.9024542874       -0.5918977423        1.9108074720
 C        -8.6037974981        0.8029656845        1.9609465334
 O        -9.7266447242        1.0046200428        1.5652399817
 C        -7.7283924119        1.9547183672        2.4530241543
 C        -8.5571726400        3.2382162363        2.4466001507
 C        -8.8817431389        3.6485708636        1.0970182756
 O        -8.1317878644        3.3206763619        0.1688542962
 C       -10.1002365408        4.5435284877        0.7380938860
 C        -9.5823344605        6.0244390091        0.8446962822
 O        -8.5176314606        6.3251475734        0.2989692439
 C       -10.4708135180        7.1873819606        1.4893311257
 C        -9.9617904283        8.5934529275        1.1258261523
 C        -8.4894565677        8.9110230434        1.4400478546
 O        -7.8401784038        8.1554587181        2.1611547440
 C        -7.8689772697       10.2457248841        0.8566898616
 C        -7.1411565160        9.7346806918       -0.4898735377
 O        -7.7735619494        9.5110015403       -1.5106278046
 C        -5.6678190301        9.3293243971       -0.3627447983
 C        -5.2302588145        8.9642821990       -1.7577728104
 C        -5.7150996727        7.5654806919       -2.2901993092
 O        -5.6865916758        6.6027117333       -1.5170712895
 C        -6.0315441623        7.2986968499       -3.8705243527
 C        -7.6755909454        7.2840566990       -3.8734719544
 O        -8.3354293339        6.4251805706       -3.3232101438
 C        -8.4505998937        8.3642708818       -4.5393674699
 C        -5.4121022108        8.2688643386       -4.9353540046
 C        -5.4985991063        5.8058015787       -4.0935841795
 C        -8.9918793869       11.3045139379        0.4158509259
 C        -6.9453211534       10.9394529552        1.8499693931
 C       -10.5999422930        4.3342644193       -0.7277719057
 C       -11.2644303502        4.2425044296        1.6585119496
 C        -8.8304570611       -1.5722042281        2.5642102076
 C        -6.5318621945       -0.6256602677        2.5239644837
 C       -13.3475308241       -2.2807084055       -2.4633369327
 C       -11.2532478730       -1.4084685989       -3.4994922330
 C       -15.9141826765       -1.2211690865        1.4938733411
 C       -16.8676965921        0.9775750550        2.0697508955
 H       -15.2372186264        1.5174466453        5.0624018730
 H       -14.7352155646        2.1150155398        3.4499124330
 H       -13.6436147298        1.3061772171        4.5800814490
 H       -13.8687985226       -0.9513786595        0.0066788556
 H       -12.6245139121        0.2812061532        0.3079379083
 H       -14.1156204286        1.7897163990       -1.3123000457
 H       -14.7847918754        0.2113928804       -1.8468827734
 H       -10.2757012894       -0.2153280682        0.0922710943
 H        -9.8798666108       -0.1330311246       -1.6168480988
 H        -8.2970063713       -2.0805222836       -1.3850338185
 H        -9.1943875184       -2.6408678026       -0.0007932522
 H        -6.7739122274        1.9621368445        1.7975786243
 H        -7.4398518900        1.6228381521        3.5216417699
 H        -8.0147435245        3.9988363048        2.9336521408
 H        -9.4630199232        3.0369907963        3.0658761580
 H       -10.4328337504        7.0394673332        2.6303283556
 H       -11.4775387803        7.1295222049        1.1181728816
 H       -10.6411672092        9.3061668256        1.6237495757
 H       -10.0937972464        8.6977592282        0.0351907587
 H        -5.5929907050        8.4834268818        0.3751390037
 H        -5.0746132780       10.1769108840        0.1119814745
 H        -4.0850378603        8.9224273592       -1.8806098188
 H        -5.5546311943        9.6866379557       -2.5779169948
 H        -9.5596251551        8.2592023951       -4.4146972874
 H        -8.4646133952        8.3277889185       -5.6327823403
 H        -8.1409702859        9.3389143435       -4.2930123286
 H        -5.5179241323        9.3203336660       -4.6729572916
 H        -5.8744275665        8.1006610655       -5.9782433337
 H        -4.3522307803        8.2484113353       -4.9556091305
 H        -6.2087612952        4.9514188975       -3.7388605418
 H        -4.4894904272        5.6590663788       -3.7228434204
 H        -5.4566487557        5.6539981974       -5.1525939188
 H        -9.5544105275       11.5620265475        1.2910399725
 H        -9.5151355665       10.8792078368       -0.4107001579
 H        -8.4849185107       12.2110971039        0.1313571159
 H        -6.3584575427       11.7076533131        1.3395857774
 H        -6.2611981727       10.3123451439        2.3879665722
 H        -7.4869687918       11.4423364051        2.6750972710
 H        -9.8325108926        4.2519782940       -1.4995384134
 H       -11.2652024540        5.1799526873       -1.0290493461
 H       -11.1429030914        3.3991306310       -0.7558039189
 H       -12.1199250446        4.7670694660        1.1809190357
 H       -11.1739689055        4.6758870360        2.6240137960
 H       -11.4506282298        3.1515468214        1.7186922188
 H        -9.8884186274       -1.4888998541        2.1485648086
 H        -8.8333227514       -1.2859728264        3.6519785923
 H        -8.4979280008       -2.5869846567        2.4133782765
 H        -6.3215692028       -1.6360653215        2.7978804284
 H        -6.4245662640       -0.0675599786        3.4841663186
 H        -5.7686621390       -0.2413155293        1.8974692949
 H       -12.8979091256       -3.2844345528       -2.2546636172
 H       -13.8279072406       -2.3905287860       -3.4935308274
 H       -14.1503864339       -2.1882427193       -1.7770353637
 H       -11.8363673926       -1.5389322532       -4.4497177802
 H       -10.8257617455       -2.4086428883       -3.3220879140
 H       -10.5048557071       -0.6104790195       -3.6142013936
 H       -16.1910350287       -1.1688730393        0.4566063581
 H       -16.7614106431       -1.6466704060        2.0180811228
 H       -15.1527741841       -1.9124749921        1.5896140940
 H       -17.4848293380        0.7388133201        1.1177272651
 H       -16.5399716914        1.9919840655        2.2903136251
 H       -17.4407663997        0.5808879205        2.8911100841
 Na       -7.4810154589        5.2395834078       -1.6436665265
