117

 C       -15.2761228277        1.4920260446        4.4148061901
 C       -14.8849794030        0.3335795915        3.3805846834
 O       -14.2092919280       -0.6054488434        3.7370822712
 C       -15.5763198668        0.3178622775        2.0446466610
 C       -14.6403639330        1.2242806027        1.1896275586
 O       -14.8060363729        2.3919059639        1.0822119142
 C       -13.4982085387        0.4885639339        0.4393686916
 C       -13.9550768583        0.5072684608       -1.0376924162
 C       -12.7197829585        0.0282321829       -2.0020416093
 O       -11.9594570811        0.8133458906       -2.4295270845
 C       -12.3907477176       -1.5404749622       -2.2275810252
 C       -11.3627731024       -1.8264693255       -1.0561091838
 O       -11.5878266391       -2.5275247206       -0.1031639979
 C       -10.1251223670       -0.8519324484       -0.8746682565
 C        -8.7907845008       -1.5787516086       -0.5657507949
 C        -7.8952545745       -0.7579757697        0.3664597706
 O        -6.8353014894       -0.3039282947       -0.0245988488
 C        -8.2911158083       -0.6024342151        1.8870763472
 C        -8.7100489462        0.8593753929        2.1232502647
 O        -9.8806448593        1.2309302859        2.1549682148
 C        -7.5726121744        1.8814810855        2.2870396995
 C        -8.2436864581        3.2824220723        2.2597618866
 C        -8.5513618269        3.7544093779        0.8643053326
 O        -7.8987442282        3.3895821454       -0.0973022705
 C        -9.8551286309        4.5398043563        0.5390138112
 C        -9.5484037808        6.0667714698        0.3987144943
 O        -8.7008496242        6.4322866922       -0.3522256304
 C       -10.4928751313        7.1638519152        0.9932827604
 C        -9.9736488337        8.5510421899        0.6724187117
 C        -8.6420620533        8.9493261903        1.3045928538
 O        -8.1997725197        8.4804507073        2.3053356991
 C        -7.8485300727       10.2316964963        0.6213548701
 C        -7.0799235009        9.6837259921       -0.6254498925
 O        -7.6727795429        9.2273731508       -1.5795689975
 C        -5.5440564022        9.5178971480       -0.5903766418
 C        -4.9275412291        8.9795704474       -1.9068059511
 C        -5.4576520133        7.6120448347       -2.2323238387
 O        -5.4624547621        6.7744205632       -1.3422742423
 C        -6.0483428573        7.3451350513       -3.6314432903
 C        -7.6829422995        7.1305941272       -3.5983632366
 O        -8.2282517242        6.2811451536       -2.9410807213
 C        -8.5367871975        8.0069094220       -4.4393403191
 C        -5.7163052260        8.4018945822       -4.7645268592
 C        -5.4277638598        5.9358980132       -4.1177513080
 C        -8.8094585842       11.2985358137        0.2449452167
 C        -6.8094339683       10.7095901575        1.6943629015
 C       -10.2611346616        4.1103739102       -0.9271866640
 C       -10.9720566170        4.2412488084        1.5820119659
 C        -9.4122885964       -1.5500452880        2.3382276130
 C        -7.0471559948       -0.9380016462        2.7144051576
 C       -13.5520484707       -2.5549672414       -2.1418821602
 C       -11.6050287838       -1.8379731150       -3.5107391490
 C       -15.7304358233       -1.0961090970        1.4863621062
 C       -16.9635294466        1.0462392095        2.0984999205
 H       -16.3033460490        1.5488899866        4.5061202290
 H       -14.9823588796        2.4009624086        3.9712487993
 H       -14.6390049870        1.3540015416        5.3403637307
 H       -13.3307157599       -0.5643141159        0.7781951146
 H       -12.5542514973        1.0037366726        0.5918148414
 H       -14.1771316942        1.4957388124       -1.3872797183
 H       -14.9212486847        0.0085591533       -1.1391979088
 H       -10.3935218577       -0.2382912302        0.0038599962
 H       -10.0243142840       -0.2455388571       -1.7391591949
 H        -8.0986264236       -1.9358207160       -1.4308455590
 H        -9.0614599282       -2.4625261634        0.0045248357
 H        -6.7896501125        1.7850203060        1.4464384951
 H        -7.1606266271        1.6163780464        3.3482991136
 H        -7.4989368809        3.9611845563        2.6808430313
 H        -9.1198924659        3.2362246777        2.8612215058
 H       -10.6515065143        7.0569398947        2.1056689092
 H       -11.4645113496        7.0289870561        0.4852754632
 H       -10.7252794666        9.2667150928        0.9359310475
 H        -9.8605255044        8.6014768130       -0.4573343680
 H        -5.4186481912        8.7203552935        0.2497203313
 H        -5.0669544082       10.4273648458       -0.4357570844
 H        -3.7874324266        8.8780782590       -1.7839257094
 H        -4.9798311763        9.6507042339       -2.8380176121
 H        -9.5860768199        7.8667667293       -4.2740890962
 H        -8.3013441615        7.9732945806       -5.4845583875
 H        -8.3202963706        9.1044774984       -4.2339585865
 H        -6.2649158177        9.3140515167       -4.8195970673
 H        -5.8808234056        8.1450503218       -5.7566491227
 H        -4.6509344802        8.7385131177       -4.5901934706
 H        -5.5020527306        5.2346821693       -3.3482253037
 H        -4.3623862185        5.9625218369       -4.5208865423
 H        -6.0834437817        5.4467367332       -4.8808232900
 H        -9.5435109171       11.3315868250        1.0262639992
 H        -9.3169173066       11.0352157024       -0.7061397559
 H        -8.2261255581       12.1759735613        0.1135623758
 H        -6.2522401904       11.5726318985        1.3941376581
 H        -6.1024584116        9.9174124986        1.9253819201
 H        -7.2110215199       11.0210395494        2.6533376605
 H        -9.3699946870        4.0974871512       -1.5494330988
 H       -11.0888559563        4.6407148686       -1.3061526721
 H       -10.6335841758        3.0834511338       -0.8842527813
 H       -11.9645579176        4.5840711631        1.2602974235
 H       -10.7281179757        4.7891529214        2.5422497609
 H       -11.0399458801        3.1913766941        1.7309853947
 H       -10.3063077049       -1.0900287228        1.9659283178
 H        -9.4943302626       -1.5031422707        3.4582140865
 H        -9.2182415727       -2.6463163729        2.1539990561
 H        -6.8720037589       -2.0324168746        2.7541977113
 H        -7.0820393025       -0.5382009032        3.7057285010
 H        -6.1459369865       -0.4935635454        2.2408968369
 H       -13.1708836016       -3.5501446026       -1.8409458340
 H       -14.1559175222       -2.5089992373       -3.0237933604
 H       -14.3204975536       -2.2898994426       -1.3702436143
 H       -12.1845800856       -1.3406932314       -4.2946449793
 H       -11.5528051282       -2.9226436912       -3.5864373982
 H       -10.6395637196       -1.3050845760       -3.5526332560
 H       -16.0292044063       -0.9301140255        0.4825962490
 H       -16.4201697346       -1.7176682092        1.9349978664
 H       -14.7821427789       -1.6594853490        1.4136880192
 H       -17.3857261387        0.9071658432        1.1369029512
 H       -16.8820992526        2.1679377483        2.2512105042
 H       -17.5410326484        0.4503476514        2.8919182732
 Na       -7.0875850230        5.0956567437       -1.4477483447
