117

 C       -15.7546955082        0.9453500487        4.9535684179
 C       -14.9557329069        0.8481570182        3.5746311892
 O       -13.7576378791        0.9429692719        3.6572539297
 C       -15.7322061476        0.7400405576        2.1588014665
 C       -14.9430916147        1.6659361210        1.0551944406
 O       -15.3620723124        2.6996298540        0.6330875112
 C       -13.7068563182        1.0344498573        0.3446030692
 C       -13.9855240699        0.5956837250       -1.1256395857
 C       -12.6532825322       -0.0284138413       -1.5843447947
 O       -11.7969391304        0.7357135801       -1.9586409031
 C       -12.4999479651       -1.5834566695       -1.6222167566
 C       -11.2890425189       -2.0458473080       -0.8168006375
 O       -11.3794247681       -3.0340666512       -0.1104312765
 C       -10.0062082355       -1.2144885546       -0.7552951040
 C        -8.8734939968       -1.9754686319       -0.1982894784
 C        -8.0388040926       -1.1172533923        0.8052092569
 O        -6.8456967106       -0.9486742031        0.5825743425
 C        -8.7242811114       -0.6558973797        2.2310868011
 C        -8.9182852140        0.8580712127        2.0858892904
 O        -9.8650169612        1.3092404045        1.4369998321
 C        -7.8153506070        1.7980204572        2.5568133417
 C        -8.2313954926        3.2491512012        2.6151316750
 C        -8.3109579589        3.7417065785        1.1680346184
 O        -7.3453693174        3.7359288304        0.4182527705
 C        -9.6202824825        4.3772563585        0.5228245398
 C        -9.3064872659        5.8474763537        0.2315225980
 O        -8.3308111417        6.2374166999       -0.3693734675
 C       -10.2725380169        6.9044341196        0.6574063222
 C        -9.8601626245        8.2837059372        0.1335552328
 C        -8.8059970484        8.9132569790        1.0021184869
 O        -8.5454633129        8.5174509734        2.1322632493
 C        -7.9071042069       10.0848797801        0.4415844007
 C        -7.1223134093        9.5391761913       -0.8103201290
 O        -7.7056571361        9.3426869188       -1.8441540081
 C        -5.5299604813        9.5088633585       -0.7037514485
 C        -4.8973544209        9.1603684666       -2.0613011300
 C        -5.3690476078        7.7318042818       -2.5252922716
 O        -5.4203568154        6.8303159056       -1.6762286867
 C        -5.7401221883        7.5150206897       -4.0604681211
 C        -7.2803847875        6.9573260931       -4.2052390442
 O        -7.6893919236        6.0792760219       -3.4994133992
 C        -8.1750155948        7.6265446419       -5.2336592544
 C        -5.4994154138        8.7521193523       -4.9872948032
 C        -4.9082301053        6.3481897364       -4.6742012114
 C        -8.7699448486       11.2801424916       -0.0051194138
 C        -6.9195067762       10.5522218617        1.6420463123
 C        -9.9115486601        3.6133750260       -0.8024508860
 C       -10.8815484716        4.1581224308        1.3665303843
 C       -10.2023402908       -1.3662019508        2.4824554311
 C        -7.8654581352       -1.1178325592        3.3737549608
 C       -13.8509571987       -2.3874529368       -1.2074942527
 C       -12.1817521521       -1.9873732088       -3.1618895370
 C       -15.8045383486       -0.7745992293        1.8749353711
 C       -17.2097023591        1.2152887289        2.1991123759
 H       -16.3829870692        0.1094479760        4.8672467498
 H       -16.1958735880        1.8660908700        5.0506214688
 H       -15.0243497159        0.7583482173        5.8050848556
 H       -13.3872172185        0.1507130841        0.9325182544
 H       -12.9039237793        1.7629360668        0.2905730175
 H       -14.0539614251        1.4699878257       -1.7057180946
 H       -14.8428938983       -0.0648014784       -1.2765634387
 H       -10.1809185904       -0.3067093656       -0.2044520120
 H        -9.9720865348       -0.8883925427       -1.7935014712
 H        -8.1583746343       -2.2417697938       -0.9694087446
 H        -9.3007772059       -2.9029005894        0.3031253782
 H        -6.9797257813        1.7364803923        1.8056471360
 H        -7.3880918221        1.2836248480        3.4912899530
 H        -7.4653759781        3.8461492197        3.0483121545
 H        -9.1378658194        3.5082467596        3.2196699668
 H       -10.3102335246        6.9055885794        1.7913916341
 H       -11.3099572289        6.5978366534        0.3925612776
 H       -10.7542501561        8.9661319722        0.1109789199
 H        -9.4633094181        8.2677125568       -0.8702503128
 H        -5.2725599366        8.6150288715       -0.1247271044
 H        -5.0526416543       10.4108487070       -0.3407435034
 H        -3.8098304805        9.0981384338       -1.8585556132
 H        -5.0662835421        9.8686259370       -2.9156554925
 H        -9.2163997414        7.3155780429       -5.2394686320
 H        -7.7712736448        7.6308445297       -6.2095767800
 H        -8.1997699471        8.7268290657       -4.9677889590
 H        -6.2109322945        9.5018181821       -4.7310087164
 H        -5.7099667973        8.4381321518       -6.0528645867
 H        -4.4846228252        9.2139421171       -4.8209328519
 H        -5.2838125587        5.3821473465       -4.4307799002
 H        -3.8361512152        6.2905306800       -4.2782025037
 H        -4.8892137146        6.4508364072       -5.7729460149
 H        -9.2295466624       11.7305726107        0.8902037756
 H        -9.5785662972       10.9996264417       -0.7763781508
 H        -8.1937442602       12.0944703033       -0.4561465981
 H        -6.2318214771       11.3237527557        1.3199381623
 H        -6.3259083677        9.7444932118        1.9614189373
 H        -7.5164455352       10.8610775302        2.5235309542
 H        -9.1466278247        3.6960749903       -1.5482880998
 H       -10.7217010847        4.1587923895       -1.2350279895
 H       -10.1406146371        2.6019068849       -0.5485444285
 H       -11.8561285832        4.4697550213        0.8806061186
 H       -10.8676766310        4.6518435037        2.3365252267
 H       -10.9413784963        3.1106694586        1.5835318467
 H       -10.9625492314       -0.9423475164        1.8442250904
 H       -10.3945806019       -1.2190584418        3.5980608543
 H       -10.1731543502       -2.4331971975        2.2286731663
 H        -7.7933606425       -2.2045221126        3.3000592361
 H        -8.3604366619       -0.8598985491        4.3481838974
 H        -6.8996828651       -0.6483032456        3.3441812738
 H       -13.6871266186       -3.4705280008       -1.5029951472
 H       -14.7507269359       -2.0300545762       -1.7419109588
 H       -13.8301577712       -2.3062444690       -0.1378970505
 H       -12.8651944610       -1.5147622383       -3.8980581762
 H       -12.3493708501       -3.0394858152       -3.1563786219
 H       -11.1326164578       -1.7825930384       -3.2726256171
 H       -16.1953030489       -0.9460622655        0.8567823040
 H       -16.5015067504       -1.2235481848        2.5324271970
 H       -14.8576638302       -1.3319887974        2.0339853049
 H       -17.6982502801        1.0631553628        1.2306998428
 H       -17.3307338289        2.2701437650        2.5554282645
 H       -17.8436008261        0.5919220967        2.9137859321
 Na       -6.7704624815        5.1577209779       -1.5450994479
