117

 C       -15.8131806628        0.8847876042        4.9107981086
 C       -14.9730316242        0.9888612701        3.5476447789
 O       -13.7667196411        1.0915465082        3.6236885664
 C       -15.7359519676        0.8362595201        2.2425238120
 C       -15.0435659532        1.5302842594        1.0505752176
 O       -15.4860916506        2.6144447887        0.7010229966
 C       -13.7048002579        1.0249703923        0.4421042285
 C       -14.0314330327        0.6648377147       -1.0619384579
 C       -12.6926141742        0.0458546031       -1.6762390954
 O       -11.7434597784        0.7255749741       -1.9108184964
 C       -12.5304946466       -1.5701937105       -1.6383805535
 C       -11.3412267752       -2.0869664308       -0.7665691972
 O       -11.4368640139       -3.1011504985       -0.0780653766
 C        -9.9427449190       -1.2983285133       -0.8103698153
 C        -8.8148656278       -2.1251897507       -0.0974881455
 C        -8.0832865580       -1.2701289139        0.9175564893
 O        -6.9439836140       -0.8260177330        0.8187233652
 C        -8.7864033764       -0.7317821175        2.2171627830
 C        -8.9068933217        0.8592349045        1.9890170111
 O        -9.7647286642        1.3275273570        1.2497442995
 C        -7.7642375114        1.7975218503        2.4428643076
 C        -8.2350890890        3.2479476766        2.4972307788
 C        -8.3244228943        3.8447415463        1.1508251530
 O        -7.2995979990        3.8503331727        0.4537496887
 C        -9.7417310878        4.2972679109        0.5138011013
 C        -9.4015853794        5.8410688177        0.2043675841
 O        -8.3813815832        6.1283635112       -0.4194579909
 C       -10.3701911561        6.9322098992        0.7403718119
 C        -9.9445621082        8.3072749691        0.1204274790
 C        -8.7379828164        8.8986989399        0.9381540384
 O        -8.5464356302        8.4370231516        2.0651194916
 C        -7.8635263926       10.1333820553        0.4194525876
 C        -7.0021291046        9.6849361534       -0.8107875136
 O        -7.5570379629        9.3697966218       -1.8509240249
 C        -5.5428539582        9.3947074896       -0.6526548209
 C        -4.9971683598        9.1113477636       -2.0381604962
 C        -5.4190803960        7.7977993866       -2.5945337101
 O        -5.2506868389        6.8653911419       -1.7756913790
 C        -5.8067233571        7.5078833949       -4.1215220002
 C        -7.2775721083        7.0235025294       -4.2472213795
 O        -7.6821797978        6.1163614686       -3.5248333703
 C        -8.2013793859        7.4639847487       -5.3736464790
 C        -5.4224351983        8.7546419354       -4.9387548009
 C        -4.8354959523        6.3617979792       -4.5183366195
 C        -8.8486224327       11.2794442512        0.0135075773
 C        -6.8706461747       10.6052880864        1.4809471648
 C        -9.8442499875        3.5725967793       -0.8180002642
 C       -10.9785124638        4.1278182593        1.4290672349
 C       -10.2091272420       -1.3294584408        2.5362156783
 C        -7.8574531762       -1.1708782068        3.3719831174
 C       -13.8339499591       -2.2966406823       -1.2170588211
 C       -12.1252045045       -2.0283868612       -3.1115077642
 C       -15.8144398277       -0.6674299413        1.8145989039
 C       -17.1317356055        1.3492741390        2.3623670753
 H       -16.5389202947        0.1556288142        4.6740191597
 H       -16.2578618738        1.8915538908        4.8882761708
 H       -15.3038273772        0.6614893638        5.8028376502
 H       -13.4799776616        0.0812524412        1.0145948296
 H       -12.9017415089        1.7532348382        0.5186991908
 H       -14.1367806659        1.6087342556       -1.5627448405
 H       -14.9224942557        0.0191427315       -1.1769148069
 H       -10.1144235128       -0.3196128440       -0.2899492235
 H        -9.7966933563       -1.0119509281       -1.8265451523
 H        -8.0244120796       -2.4470130019       -0.8674266264
 H        -9.2300176472       -3.0173162775        0.4185790342
 H        -6.9423694611        1.6350945635        1.7975876408
 H        -7.4813273116        1.4038540904        3.3964023505
 H        -7.5690279897        3.9427813731        3.0477267686
 H        -9.1510648137        3.3429748014        3.0525363083
 H       -10.3402434043        6.9603749100        1.8903586849
 H       -11.3843384025        6.6297218605        0.5397659674
 H       -10.7128214233        9.0370998394        0.2399907228
 H        -9.7368986654        8.2224598546       -0.9882317073
 H        -5.4023213180        8.4923273074        0.0426490821
 H        -5.0025828751       10.2193424299       -0.3308933830
 H        -3.9631177124        9.1688323022       -2.0514444201
 H        -5.3899233877        9.8466661868       -2.7022730908
 H        -8.8515625133        6.6215246621       -5.6262688595
 H        -7.6546606964        7.7120931370       -6.3069064837
 H        -8.9107150229        8.3343824831       -5.2032954784
 H        -6.0319746873        9.6937835767       -4.7211355514
 H        -5.6841043553        8.5087769883       -5.9694850638
 H        -4.3097815225        8.9979751932       -4.7301162779
 H        -5.1054202438        5.4204071600       -4.1710565197
 H        -3.8875979206        6.5850271334       -4.0146609548
 H        -4.6602251244        6.2555822393       -5.6276684761
 H        -9.4929979192       11.5937285525        0.8315794148
 H        -9.4589339850       10.8997676419       -0.8056846168
 H        -8.3678226862       12.1608239160       -0.3806705019
 H        -6.2864644281       11.4735731485        1.2010294635
 H        -6.1992711026        9.7422720758        1.6194112972
 H        -7.3380334732       10.7053167033        2.4455147350
 H        -9.0617757770        3.9484918087       -1.4814641359
 H       -10.7305490101        3.8922091397       -1.3080452072
 H        -9.7587405373        2.4949887296       -0.6523159404
 H       -11.8795427850        4.5405917105        0.9292774569
 H       -10.8829500322        4.7555197884        2.3646151874
 H       -11.2140264784        3.1328448068        1.7144123970
 H       -11.0281380323       -0.9683178158        1.9119781169
 H       -10.3354261077       -1.1666768681        3.6159917353
 H       -10.1244735156       -2.4493644101        2.3423728089
 H        -7.5538276652       -2.2242999349        3.2250314308
 H        -8.3426471373       -1.0712695634        4.3154789825
 H        -6.9827192278       -0.4944992791        3.3790575133
 H       -13.7892830559       -3.3179338633       -1.5687086018
 H       -14.6949932149       -1.7751393631       -1.5395377036
 H       -13.6851777999       -2.3070439271       -0.0989249597
 H       -12.9525437278       -1.8445396709       -3.8126558915
 H       -11.9455040270       -3.1144435984       -3.0204793928
 H       -11.1988895273       -1.4457194549       -3.3112178359
 H       -16.3079258153       -0.7388097640        0.8715353843
 H       -16.3401601144       -1.2574894653        2.4984582901
 H       -14.8080686838       -1.1167830038        1.7627887833
 H       -17.6122986864        1.2408367439        1.4227911616
 H       -17.2321725446        2.4051141743        2.7415060742
 H       -17.7691159453        0.7184414150        3.0752790292
 Na       -6.6586872474        5.0668060630       -1.5100549785
