117

 C       -15.7271148621        0.8140043626        4.9702127720
 C       -15.0007612884        1.0127843364        3.5958987570
 O       -13.8468781101        1.3682722003        3.5327391703
 C       -15.8257905221        0.8540067097        2.2351641053
 C       -15.1182465770        1.6402627935        1.0271967074
 O       -15.5941074167        2.6514166239        0.5899729334
 C       -13.7341425443        1.0440871434        0.6013850665
 C       -13.7647105339        0.7382343068       -0.8623222687
 C       -12.5435782787        0.0104323556       -1.4780746341
 O       -11.6393765076        0.7039614101       -1.9695973780
 C       -12.5099300348       -1.5465360833       -1.6241953448
 C       -11.2760176817       -2.1635957842       -0.7063777045
 O       -11.5704307345       -3.0557036010        0.0660187700
 C        -9.8911974103       -1.5233895165       -0.8542420934
 C        -8.9282394218       -2.2400212924        0.0495564281
 C        -8.0781037057       -1.2729806942        0.9995435543
 O        -6.9553487114       -0.9063675773        0.7500935255
 C        -8.8266742877       -0.7515036001        2.3527389166
 C        -8.8852357492        0.7388278102        2.0178193359
 O        -9.6068677489        1.0699122275        1.0992678099
 C        -7.8398038180        1.7369680156        2.5166196600
 C        -8.2882814551        3.1511789817        2.4593528359
 C        -8.3264235639        3.8399569684        1.0762994361
 O        -7.2660809583        3.9960866677        0.5005332616
 C        -9.6869418574        4.3623917316        0.4682745716
 C        -9.4486254450        5.9328724463        0.0438320915
 O        -8.5719845669        6.3418217615       -0.6990382952
 C       -10.4334660183        7.0103889506        0.5808195058
 C        -9.9309648868        8.3921922487        0.2558642350
 C        -8.6762060888        8.8191267212        1.0054859794
 O        -8.2486973964        8.3014194511        2.0193151441
 C        -7.8971075631       10.0921496437        0.4129285876
 C        -7.1114099152        9.6325632127       -0.8406843609
 O        -7.6555861747        9.4795647154       -1.9256513877
 C        -5.5620143862        9.3947724868       -0.7139162887
 C        -4.9100806295        9.1159045196       -2.1244213336
 C        -5.2217636731        7.7088168057       -2.6461365462
 O        -5.2672800361        6.8893069582       -1.7786536956
 C        -5.6315027504        7.4562939844       -4.1555634828
 C        -7.1607049867        6.9111378861       -4.2161802503
 O        -7.5673973737        6.0819862626       -3.4301916871
 C        -7.9002352841        7.1959100084       -5.4523322986
 C        -5.4762583347        8.7304889860       -5.0676183607
 C        -4.7887207574        6.3067022097       -4.5872187055
 C        -8.9109214209       11.1901698098       -0.1090286235
 C        -7.0808153873       10.7453637934        1.6256739486
 C        -9.9425819444        3.6167693899       -0.8945897991
 C       -10.8936293810        4.0717748780        1.3927053320
 C       -10.2825176255       -1.2168794205        2.5090130603
 C        -7.9554181393       -1.0485943783        3.5738542329
 C       -13.8516273403       -2.3132380148       -1.2018357366
 C       -12.1081967878       -1.8419142613       -3.0939142444
 C       -16.0575450197       -0.6123858195        2.0121742704
 C       -17.1913719281        1.5199673662        2.4476773592
 H       -16.2979276946       -0.1432789867        4.9892152506
 H       -16.2598126767        1.7033517338        5.2797531973
 H       -14.7572187137        0.5632291681        5.5636339850
 H       -13.4321231713        0.2218447220        1.2085033015
 H       -13.1005160989        1.9261956398        0.7771200016
 H       -13.8942869680        1.7175581989       -1.3793037169
 H       -14.5841946578        0.0556677883       -1.0929439826
 H       -10.0590639691       -0.4686329898       -0.6903238442
 H        -9.5927287746       -1.5739953594       -1.9467787279
 H        -8.3124270216       -2.7753612203       -0.6052056040
 H        -9.3532110287       -3.0303626098        0.7001999906
 H        -7.0496177052        1.4934260356        1.7850618646
 H        -7.5042611298        1.4073156155        3.5351679642
 H        -7.6394848960        3.7742216897        3.0709859966
 H        -9.2290903154        3.2469015360        3.0481875327
 H       -10.5513560031        6.8545145788        1.6005013780
 H       -11.4442611060        6.8482722278        0.1598494969
 H       -10.7284884257        9.1784941663        0.3634214719
 H        -9.6335741086        8.3884851370       -0.7557730895
 H        -5.2934257969        8.6085076984       -0.0235849856
 H        -5.0297056296       10.3756651498       -0.3560786388
 H        -3.7811876623        8.9924713761       -2.0838776001
 H        -5.0729866395        9.9575133282       -2.8535111297
 H        -7.8396567621        6.3902583828       -6.2207857411
 H        -7.6307477554        8.1016523049       -5.9494753361
 H        -8.9561020405        7.3020224660       -5.2195456682
 H        -6.2085458675        9.4660910882       -4.9752643069
 H        -5.5708107819        8.4755150810       -6.1365631935
 H        -4.5601524690        9.1053859090       -4.7451580365
 H        -4.8297085501        5.4789708228       -3.8572720426
 H        -3.7411737367        6.6216471949       -4.7323472364
 H        -5.1712296919        5.8673618989       -5.4589321576
 H        -9.7675947906       11.2560430989        0.5359231111
 H        -9.3169049405       10.9933471089       -1.1104135854
 H        -8.4895844273       12.1730963770       -0.2269690751
 H        -6.4301593670       11.5870165066        1.2950046701
 H        -6.5300642543        9.9586731382        2.1310642556
 H        -7.7974726357       11.1255818179        2.3973630429
 H        -9.2389156949        3.8931730363       -1.7053373805
 H       -10.9762800958        3.9297512698       -1.2231233961
 H        -9.9174488012        2.5531624896       -0.6460627907
 H       -11.8275306369        4.3674985723        0.9158259821
 H       -10.8916945409        4.5167894438        2.3441908610
 H       -10.9984103055        2.9733136053        1.4815522353
 H       -10.7798380730       -0.9000392641        1.6082809214
 H       -10.7163420039       -0.6678212059        3.3526670833
 H       -10.4074070846       -2.2393636878        2.6628211471
 H        -8.2169148740       -2.0314635521        3.8879607934
 H        -8.2657144983       -0.3391629559        4.3743797614
 H        -6.9141474857       -0.9431906978        3.4246652526
 H       -13.5361061644       -3.3440026563       -0.9375773926
 H       -14.4613774984       -2.1428319152       -2.1101798518
 H       -14.3599429255       -1.9081790691       -0.3986046840
 H       -13.0586134942       -2.1243513801       -3.5797042220
 H       -11.4166896209       -2.6711659243       -3.1249584090
 H       -11.8126297053       -0.9060070315       -3.5336171309
 H       -16.6995541484       -0.8740045825        1.1628230141
 H       -16.5260971272       -0.9920304757        2.9463312848
 H       -15.1329138259       -1.1498189511        1.9017398874
 H       -17.8321846192        1.7130539220        1.5875555959
 H       -16.9983790138        2.4493707884        2.8911513445
 H       -17.7561521139        1.0542470540        3.2005519941
 Na       -6.6889986192        4.9922022194       -1.5275415872
