117

 C       -15.4734932192        0.6648839281        4.9904522401
 C       -14.8729676399        1.1820098358        3.5931096800
 O       -13.8631820925        1.8676058043        3.5469204374
 C       -15.9085734015        1.0443336049        2.3216705832
 C       -15.1880931434        1.4283901041        1.0345221389
 O       -15.5491714926        2.3814646226        0.3714019684
 C       -13.9810473345        0.6273441485        0.5523336288
 C       -13.6773257737        0.7982619314       -0.8980396911
 C       -12.3988118236        0.0891247608       -1.2981550308
 O       -11.4064414572        0.7587221232       -1.3935430237
 C       -12.4118357457       -1.5457010310       -1.5229173193
 C       -11.4127360088       -2.1343887424       -0.4639578394
 O       -11.7959557749       -2.8263942930        0.4504412192
 C        -9.9407293562       -1.7636545930       -0.7518843947
 C        -9.0014097675       -2.4125807998        0.2909467147
 C        -8.2147787753       -1.4082979661        1.0757251520
 O        -6.9580344061       -1.3878393626        1.0204178653
 C        -8.8243194458       -0.5867336621        2.2166856401
 C        -8.8563901541        0.8979899348        1.8196445819
 O        -9.8050839675        1.3380915957        1.1733830014
 C        -7.8556719258        1.8355277216        2.4752056457
 C        -8.3392310514        3.3050545969        2.4692500364
 C        -8.3550911431        3.8193814349        0.9969969328
 O        -7.3372065297        3.7309990336        0.3121925577
 C        -9.6295908947        4.4469754546        0.2913026943
 C        -9.4867451633        5.9799561988        0.0702163883
 O        -8.6809741961        6.4325270468       -0.7501904076
 C       -10.4104117156        7.0280039495        0.7923940262
 C       -10.0323552450        8.4524869532        0.3008349518
 C        -8.5900164914        8.7637409637        0.7644359081
 O        -7.9243139505        7.9856652975        1.4551999297
 C        -7.9910822225       10.2175713492        0.3060635524
 C        -7.1908315585        9.6986179928       -0.9866658357
 O        -7.7749281680        9.2961414338       -1.9553016823
 C        -5.7448959361        9.3847441994       -0.7925102430
 C        -5.0545185873        9.0883332703       -2.1197863625
 C        -5.3662345077        7.6768105032       -2.5724557225
 O        -5.3095184938        6.7863812033       -1.7604539876
 C        -5.6009455473        7.3405835325       -4.0722271631
 C        -6.8566376771        6.6257799819       -4.4582084675
 O        -7.2626924471        5.6607029960       -3.8012340082
 C        -7.7661506622        7.0571633933       -5.6282182666
 C        -5.2841732125        8.5459118070       -5.0427764399
 C        -4.3943356734        6.2954189188       -4.2278041838
 C        -9.0279639189       11.1936883291       -0.0405205015
 C        -7.0517609448       10.6843045902        1.3973201235
 C        -9.8376480177        3.6988953323       -1.0289675972
 C       -10.9252623383        4.0949653669        1.0912439463
 C       -10.3462560350       -0.9663992376        2.5164425044
 C        -7.9675578542       -0.9115038737        3.4257247758
 C       -13.8417027945       -2.0578591681       -1.3375197753
 C       -11.9856058369       -1.7482456226       -3.0147539741
 C       -16.4079685010       -0.4079337352        2.2291921490
 C       -17.0969141949        2.0209797610        2.6652467350
 H       -15.8688490969       -0.3349244513        4.7407751664
 H       -16.3188237101        1.2789359168        5.1703519592
 H       -14.7114891799        0.4815746989        5.8094424119
 H       -14.0581365513       -0.4248493377        0.8503336225
 H       -13.1423586843        1.0711369211        1.1350034714
 H       -13.5176266977        1.8814220649       -1.1112725161
 H       -14.5658379560        0.5731004977       -1.5556935132
 H        -9.8931350089       -0.6731558210       -0.7812298227
 H        -9.6995493859       -2.1476340547       -1.7959428602
 H        -8.2207045489       -2.9890419396       -0.1345485462
 H        -9.5516443451       -3.1987412274        0.8490773597
 H        -6.9795099723        1.7680007794        1.9260376682
 H        -7.7343665446        1.5265252110        3.5015015405
 H        -7.5953021717        3.7575849826        3.1152918492
 H        -9.3562583136        3.4765210048        2.9275035934
 H       -10.2228158032        6.9740868541        1.8303949308
 H       -11.4861876594        6.8031953201        0.6410507720
 H       -10.7483697467        9.2164492281        0.7381765197
 H       -10.0517049863        8.5469425497       -0.7486391131
 H        -5.5150679422        8.6216178152       -0.0622648583
 H        -5.1244040089       10.2229130721       -0.3148968042
 H        -4.0011474549        9.2194034956       -1.9800286583
 H        -5.3532016048        9.7923687396       -2.9172022811
 H        -7.5687408377        8.0679434299       -5.9439562053
 H        -8.8064650995        7.1299626437       -5.2896956090
 H        -7.8735864806        6.3561931833       -6.5435973967
 H        -6.1633017175        9.1839631695       -5.1507995626
 H        -4.9955296386        8.1808219366       -6.0746856959
 H        -4.3824836796        9.0418831565       -4.5638239880
 H        -4.6515519980        5.4198281037       -3.7744411405
 H        -3.4776258072        6.7695944020       -3.7748055327
 H        -4.1462947671        6.0832320772       -5.2525719445
 H        -9.6906305216       11.4290401011        0.7492274502
 H        -9.6936892372       10.9352156091       -0.8654715773
 H        -8.5603378835       12.0839223152       -0.3414207428
 H        -6.6670653149       11.6567808504        1.1121252254
 H        -6.3554747931        9.9089855319        1.5511244089
 H        -7.6045132601       10.8679263660        2.3516304228
 H        -8.8706309533        3.6044836844       -1.5130274699
 H       -10.6109097209        4.2046640707       -1.6219824615
 H       -10.2267764419        2.7238460647       -0.7670412997
 H       -11.8615361917        4.4386315473        0.5756611768
 H       -10.8924760388        4.5935364041        2.0460543391
 H       -11.1029805905        3.0511408356        1.3032671703
 H       -10.9887539960       -0.4978435883        1.8059258658
 H       -10.7032504024       -0.5588302760        3.5093260795
 H       -10.4749197488       -2.0321065469        2.5931746022
 H        -7.7951032314       -1.9744160312        3.3677177831
 H        -8.4748684114       -0.6662336484        4.3984489732
 H        -6.9985471041       -0.4699224303        3.3595949703
 H       -13.8178344793       -3.0739547746       -1.7254892458
 H       -14.6292156571       -1.3758610438       -1.5823951521
 H       -13.9189953302       -2.2316102835       -0.3130214177
 H       -12.3512027692       -0.9071491143       -3.6658663844
 H       -12.3318215473       -2.7401335319       -3.3232210445
 H       -10.9011731589       -1.6104675531       -3.0787468077
 H       -16.7674485475       -0.5959706419        1.2318924602
 H       -17.2183893788       -0.5574086000        2.8847221061
 H       -15.6146363035       -1.1120849285        2.4009846202
 H       -17.8295062204        1.9161939786        1.9201559088
 H       -16.8879319082        3.0615174422        2.5684530512
 H       -17.6268840876        1.8848386688        3.6287694903
 Na       -6.8542975593        5.1092808506       -1.4448744469
