117

 C       -15.4514591170        0.6862435136        4.9662992807
 C       -15.0212282566        1.2145324664        3.5617137321
 O       -13.9191533312        1.6888659246        3.5172957953
 C       -15.9243072982        0.9904855054        2.3476830150
 C       -15.1821160268        1.5802797386        1.0873926068
 O       -15.5939412153        2.4589754694        0.3991535669
 C       -13.8920607744        0.7568717231        0.6957416574
 C       -13.7368373265        0.7460501319       -0.7838148665
 C       -12.4787250249        0.1397901757       -1.3287782811
 O       -11.4108473421        0.7467527474       -1.5774601331
 C       -12.4346323131       -1.4654699562       -1.5709821821
 C       -11.3337239784       -2.1194610695       -0.5791712176
 O       -11.7570473546       -2.8324521676        0.2982391906
 C        -9.8942108866       -1.7502448821       -0.7349928007
 C        -9.0080220069       -2.4664882423        0.2589516753
 C        -8.1069758065       -1.4729604106        1.0507021901
 O        -6.9374903189       -1.2499596576        0.9408329491
 C        -8.9010291221       -0.6913317903        2.2482152346
 C        -8.9249647770        0.8826025641        1.9307581910
 O        -9.7143499155        1.3332151817        1.1290280342
 C        -7.8033657029        1.8112375207        2.5111817157
 C        -8.3080945625        3.2777938552        2.3891074644
 C        -8.3610063923        3.8405863873        0.9984843778
 O        -7.3312622150        3.8065590756        0.3694530675
 C        -9.6462932684        4.4676228375        0.3388308531
 C        -9.4760645652        6.0138062155       -0.0077610298
 O        -8.6538433690        6.4445291334       -0.7977622025
 C       -10.3514674894        6.9946781640        0.7180222919
 C       -10.0187610091        8.4169595740        0.2963463270
 C        -8.6777746076        8.7819678632        0.8462220764
 O        -8.0321181661        8.0416788530        1.5441312608
 C        -7.9939463045       10.1578089158        0.3411394925
 C        -7.1491465643        9.6396553387       -0.8817417880
 O        -7.7074357730        9.3274484807       -1.9418442210
 C        -5.5846919534        9.4893366859       -0.7671584445
 C        -5.0428099032        9.1361017568       -2.1908396928
 C        -5.3819202409        7.6119076111       -2.5937597611
 O        -5.3192408331        6.7110775347       -1.8005424065
 C        -5.5214080561        7.3633297115       -4.0780796677
 C        -6.9526541044        6.6974388736       -4.3118790926
 O        -7.3549348800        5.7851785861       -3.6237230773
 C        -7.8311874415        7.0499966679       -5.5647681471
 C        -5.2659773194        8.6436200219       -4.9547107290
 C        -4.4444596780        6.2762198392       -4.4765352439
 C        -9.1109866962       11.1773040119        0.0258183946
 C        -7.0535173617       10.7634342028        1.4368883137
 C        -9.8004709811        3.6427572550       -1.0291299863
 C       -10.8903206559        4.2283299612        1.2197657449
 C       -10.4078928124       -1.1318124612        2.4535280243
 C        -7.9275561718       -0.9203061199        3.4484203214
 C       -13.8333760498       -2.1773936136       -1.2794702963
 C       -12.0231284140       -1.8456379553       -3.0263022486
 C       -16.2370276558       -0.4979112770        2.1382359944
 C       -17.1261846605        1.9012878222        2.5953646626
 H       -15.8920063149       -0.2633223465        4.8584813974
 H       -16.1917383651        1.3527232877        5.3023912915
 H       -14.5575043730        0.5381963885        5.5912292325
 H       -14.0716104747       -0.2539110475        1.0118931457
 H       -12.9625014514        1.1232792181        1.2282765286
 H       -13.8002454961        1.8211016787       -1.1444232905
 H       -14.5631067081        0.2673117331       -1.2820113576
 H        -9.9356067257       -0.6544094340       -0.6248329891
 H        -9.5889834095       -1.9544050819       -1.7637119791
 H        -8.3484159527       -3.2033198758       -0.2561376968
 H        -9.5975591111       -3.1882906418        0.8532903497
 H        -6.9119890562        1.5967260668        1.9936229397
 H        -7.7213740360        1.6586950239        3.5292257123
 H        -7.5621154576        3.7738713160        3.0631879542
 H        -9.2486580275        3.3962809566        2.8915958087
 H       -10.2947298724        6.8557386960        1.7990634871
 H       -11.4149455325        6.7671435348        0.4170448206
 H       -10.7964548869        9.1051968446        0.6169943254
 H        -9.9127046063        8.4964310323       -0.8121675847
 H        -5.2528462222        8.6963848957       -0.1321304755
 H        -4.9907437551       10.3556293477       -0.2949551631
 H        -3.9928295217        9.1775222238       -2.2039708578
 H        -5.3623221554        9.8364165543       -2.8773696010
 H        -7.2596567007        7.7226711965       -6.2900904701
 H        -8.8184833268        7.5416801089       -5.4906680372
 H        -8.0566847711        6.1325616047       -6.0648520785
 H        -6.0373014156        9.3933094782       -4.6476462240
 H        -5.6212115956        8.4235349357       -6.0447377511
 H        -4.2183124404        8.9385142705       -4.8675982827
 H        -4.6223418624        5.3584845342       -3.7957898978
 H        -3.4814028619        6.7146482676       -4.3258832133
 H        -4.5115306275        5.8997101189       -5.4695661968
 H        -9.7045343466       11.4979735515        0.8939660979
 H        -9.8415830072       10.9224685220       -0.7238496052
 H        -8.6238886357       12.0704674159       -0.4144516785
 H        -6.6558207026       11.6778942164        1.0113138732
 H        -6.3752625942       10.0904463612        1.9265151189
 H        -7.7220648588       11.1482726442        2.1609807422
 H        -8.7921913348        3.4882436584       -1.3275297547
 H       -10.4204440025        4.1397077916       -1.7859837641
 H       -10.2251410166        2.6951397194       -0.7805273486
 H       -11.7744959416        4.5803571476        0.7447013512
 H       -10.8043814823        4.7294908721        2.1877688927
 H       -11.1535891848        3.1323122254        1.4298464462
 H       -11.0088255740       -0.5993841353        1.6398905890
 H       -10.8547217678       -0.7566720988        3.3857816388
 H       -10.5470654817       -2.2215850422        2.4839426432
 H        -7.7278755063       -1.9903142566        3.5753042374
 H        -8.3382122113       -0.4726232959        4.3667960769
 H        -6.9632767605       -0.4575931160        3.1895141912
 H       -13.6826358236       -3.1964294674       -1.6045544466
 H       -14.6629535113       -1.5444530278       -1.6392940878
 H       -13.9901573655       -2.2830665287       -0.2318929582
 H       -12.5174937373       -1.2423087980       -3.7648966246
 H       -12.2850209334       -2.9143947906       -3.0821900099
 H       -10.9697783826       -1.6102492882       -3.1920735998
 H       -16.7355669925       -0.5797219182        1.1897595024
 H       -16.9589370604       -0.8541170469        2.9285893762
 H       -15.3947154552       -1.1080095940        2.0731220584
 H       -17.8197236982        1.7839214236        1.6636685117
 H       -16.8477705080        2.9387981984        2.3754263795
 H       -17.7257979891        1.9284557675        3.4800382464
 Na       -6.8788761495        5.1029297636       -1.4135349981
