117

 C       -15.2631848809        0.5757806559        5.0016513733
 C       -14.8817750420        1.2318686613        3.6632509796
 O       -13.9115378833        1.9190705205        3.4808799571
 C       -15.9712945970        1.1558006897        2.4421845510
 C       -15.2380815609        1.4626941034        1.0259209942
 O       -15.6317658612        2.3594878286        0.3415172717
 C       -14.1114103262        0.4937137699        0.5734936507
 C       -13.5889965406        0.8895468172       -0.8486272362
 C       -12.3578886050        0.0656420505       -1.1709469265
 O       -11.2427862430        0.6266044350       -1.2567713255
 C       -12.4424264749       -1.4391721882       -1.5237345611
 C       -11.4308058109       -2.0850300999       -0.5218914376
 O       -11.8946774067       -2.6247919398        0.4541179525
 C        -9.9276297767       -1.8877949302       -0.7060959813
 C        -9.0455451863       -2.5097100903        0.3522464640
 C        -8.1468067274       -1.5217510340        1.1872602773
 O        -6.9942423545       -1.3853436805        0.9914378872
 C        -8.8466289584       -0.6326278817        2.3810517629
 C        -8.8043653559        0.9080805450        1.9322367496
 O        -9.6106591827        1.3339741063        1.1517519771
 C        -7.8555504314        1.9786192851        2.5226546664
 C        -8.3944160996        3.4145762619        2.4043380700
 C        -8.4660611406        3.8192492728        0.8770831514
 O        -7.4631051652        3.8636428908        0.1995635989
 C        -9.7772532865        4.3969927317        0.2416170086
 C        -9.4804738829        5.9141976497        0.0525342077
 O        -8.5839399505        6.2801104829       -0.6711184862
 C       -10.3718761720        6.8979080417        0.7844525276
 C       -10.0795947337        8.3545471947        0.5208862356
 C        -8.6121511124        8.7123437967        0.8523148094
 O        -7.8230210262        7.9771181938        1.3760851787
 C        -8.0464942516       10.1005649312        0.2998240205
 C        -7.2459862349        9.7035443505       -0.9492706797
 O        -7.8238034249        9.4687802686       -2.0118983622
 C        -5.7301981207        9.5107041411       -0.8875109558
 C        -5.0272013621        9.1363332114       -2.2445300053
 C        -5.3453477940        7.6813734488       -2.6260058417
 O        -5.6498002262        6.9095754955       -1.7374925772
 C        -5.3916315494        7.1875033888       -4.0800794917
 C        -6.7584477581        6.4664429668       -4.4769367008
 O        -7.0347995773        5.4429161993       -3.9173424593
 C        -7.5943943472        7.0062850072       -5.5480217417
 C        -5.1021901314        8.3540425882       -5.0091432641
 C        -4.2862671624        6.1765774546       -4.2623889430
 C        -9.0134763856       11.2207369391       -0.1845997133
 C        -7.1070484643       10.6666761702        1.4135291637
 C        -9.9408287482        3.7772650197       -1.2131651120
 C       -10.9908502249        4.1159359192        1.0881806197
 C       -10.3914528328       -0.9968249678        2.6462662809
 C        -8.0365571045       -0.7933135235        3.6676063793
 C       -13.8701838769       -2.1695549553       -1.4314404109
 C       -11.9996849047       -1.5401287931       -3.0573012886
 C       -16.5896019862       -0.2709574056        2.4303005232
 C       -16.9997585203        2.2884453893        2.5655912089
 H       -15.3961203833       -0.5037606666        5.1184023232
 H       -16.2090439389        1.1083814013        5.2975851196
 H       -14.4154302043        0.8754796370        5.6094541971
 H       -14.5256231483       -0.5122040856        0.6101479576
 H       -13.3589631940        0.4720357640        1.3667028368
 H       -13.4284459818        1.9494449885       -0.9883241865
 H       -14.3823015454        0.7190678432       -1.5359752518
 H        -9.6893058201       -0.8099445025       -0.8377334119
 H        -9.7388103582       -2.3731296302       -1.6370079265
 H        -8.3237598919       -3.3011263763        0.0059364242
 H        -9.7072354771       -3.0177128515        1.0300323446
 H        -6.8669989835        1.9514141667        1.8851454832
 H        -7.7078364232        1.7289940983        3.6068569583
 H        -7.6229511786        4.0853669913        2.8623081719
 H        -9.3300238256        3.5279277747        2.8819235650
 H       -10.2573178757        6.6763663077        1.8768330741
 H       -11.3920259633        6.7179156979        0.4978455044
 H       -10.7629948394        8.9527376272        1.0490973303
 H       -10.2446297699        8.5709052638       -0.5792676806
 H        -5.5428909930        8.7289696575       -0.1063327017
 H        -5.1760522380       10.2509217226       -0.3655897612
 H        -3.8740988900        9.2566721629       -2.1648297403
 H        -5.3412860216        9.8485079621       -3.0464511359
 H        -8.2831693406        7.8010718456       -5.1780154097
 H        -8.2471238739        6.2224625494       -5.9254437352
 H        -7.0918164631        7.2729422847       -6.3981673982
 H        -5.8353801002        9.1534074481       -4.8970696265
 H        -5.0610268537        7.9203796138       -5.9863423354
 H        -4.1291072039        8.6783908467       -4.9040167958
 H        -4.5601683649        5.1993627558       -3.6691442847
 H        -3.3582486313        6.5430663221       -3.9471026286
 H        -4.1916378721        5.9528770768       -5.3229359310
 H        -9.8674483275       11.3873702501        0.4966693685
 H        -9.5662900236       11.0175623363       -1.0722882386
 H        -8.5740683209       12.2357950335       -0.2925811425
 H        -6.5122992389       11.5017771131        0.9951205168
 H        -6.5198669314        9.8410543450        1.9064035015
 H        -7.7878871209       11.1266760397        2.0993030252
 H        -9.1299678421        4.2675407900       -1.7601053982
 H       -10.9406448887        4.0892397834       -1.5369814867
 H        -9.9095048306        2.6795063611       -1.2831729638
 H       -11.8774587825        4.3962284468        0.6114036042
 H       -10.9956455331        4.5803058561        2.0739688386
 H       -11.0567982716        3.0259917386        1.3041103382
 H       -11.0856409910       -0.9410637291        1.7929436266
 H       -10.8109594763       -0.3862392788        3.3618445206
 H       -10.3835105451       -1.9861649985        3.0644561125
 H        -8.2939464233       -1.6864488367        4.2358425355
 H        -8.1578016535        0.0259397407        4.3179936295
 H        -6.9874853587       -0.8911144941        3.3374197352
 H       -13.7620279630       -3.2017134954       -1.7422090957
 H       -14.6212888325       -1.6254498178       -2.0675934340
 H       -14.2522472371       -2.1527171889       -0.3830874919
 H       -12.8024534754       -1.3332199491       -3.7499513192
 H       -11.6951248502       -2.5974668720       -3.1518047924
 H       -11.1522796708       -0.8605381663       -3.2494433668
 H       -17.2166633516       -0.4179275087        1.5450813352
 H       -17.2902286737       -0.3853525870        3.3161010473
 H       -15.8111471818       -1.0242865825        2.4829518900
 H       -17.7290215685        2.5033081348        1.7282403951
 H       -16.5184029999        3.2278584908        2.7616114970
 H       -17.6130477580        2.1590376836        3.3983314552
 Na       -6.8887511426        5.0995139227       -1.6841353463
