117

 C       -15.1012150459        0.6539503585        4.8742503981
 C       -14.8701721740        1.3672919230        3.5438487269
 O       -13.8157979300        1.9622422850        3.3127065464
 C       -16.0419534188        1.3419472067        2.5602233812
 C       -15.3405883265        1.4845984251        1.1386474071
 O       -15.6547132634        2.3271812728        0.3159597850
 C       -14.1608217941        0.4465783724        0.7819915751
 C       -13.6091292588        0.8040001931       -0.5446526759
 C       -12.3566358961        0.1266750135       -1.1398043238
 O       -11.3700247604        0.7532597740       -1.3198236760
 C       -12.3371530799       -1.3934833156       -1.6418179138
 C       -11.3960736967       -2.0671212290       -0.5424635497
 O       -11.9189788150       -2.5811470103        0.4400868129
 C        -9.8555419148       -1.9961400141       -0.6592302164
 C        -9.1464656287       -2.5312321863        0.6997261052
 C        -8.2647068041       -1.4667924822        1.3644940981
 O        -7.1291002580       -1.2532207721        0.9962267931
 C        -8.9177874410       -0.5571187035        2.5595667992
 C        -8.8119292674        0.8419591439        1.8979247809
 O        -9.4581316877        1.1751329821        0.9119044947
 C        -7.8362412439        1.9729311939        2.4939971652
 C        -8.3720565003        3.3924601645        2.1836268140
 C        -8.4222526565        3.7458816114        0.7292502158
 O        -7.3666323342        3.7594647940        0.0883817456
 C        -9.8127142485        4.3101542474        0.1672465512
 C        -9.5983599238        5.9039630216        0.0104041623
 O        -8.7425368353        6.2932822343       -0.7581098005
 C       -10.4029294309        6.9432607517        0.8781023665
 C       -10.0614301743        8.4160436333        0.5293057721
 C        -8.5838500781        8.7608375957        0.8655937964
 O        -7.8991534974        8.0316617117        1.5633081519
 C        -8.0025912053       10.0456354353        0.2944691117
 C        -7.1061265164        9.7750038655       -1.0291196270
 O        -7.6787916042        9.6735106206       -2.0680094029
 C        -5.6223973701        9.6985029174       -1.0386724247
 C        -5.1176424153        9.1523003599       -2.3707773031
 C        -5.3680642690        7.6487957916       -2.6268449999
 O        -5.8825622210        6.9405582094       -1.7871433618
 C        -5.1799340845        7.0807153381       -4.1694656719
 C        -6.5598679634        6.4238338522       -4.5184337725
 O        -6.8148792663        5.3150169475       -4.0037107654
 C        -7.5834295559        6.9651053585       -5.5118921887
 C        -4.7951443963        8.1370225862       -5.1358111474
 C        -4.1391291965        5.9965885179       -4.1472919808
 C        -9.2249183334       10.9105316181       -0.0657280925
 C        -7.1682945231       10.8101105056        1.4166776153
 C       -10.1210422744        3.6740085427       -1.2413551853
 C       -11.0849679472        4.0684067448        1.0232241177
 C       -10.3841821526       -0.8872176566        2.8797494801
 C        -7.9741766840       -0.8419477404        3.8395982054
 C       -13.7219400835       -2.1017730285       -1.5194538299
 C       -11.7101242076       -1.5454533308       -3.0818840236
 C       -16.8837565835       -0.0063123621        2.5322461815
 C       -17.0645071548        2.4819233508        2.8080544654
 H       -14.7176424930       -0.3391503028        4.6754244800
 H       -16.1542321060        0.5355213777        5.0383653696
 H       -14.5563559079        0.9935287148        5.7167157362
 H       -14.6957257410       -0.5256171828        0.8139344759
 H       -13.3624848460        0.2673136337        1.5016299814
 H       -13.4610996839        1.8739563484       -0.5789655544
 H       -14.4005735358        0.7135717169       -1.3382539026
 H        -9.5533615074       -0.9863755045       -0.8528889427
 H        -9.4509736183       -2.6769203502       -1.4595008517
 H        -8.5003178061       -3.3679034286        0.4897979619
 H        -9.8891450938       -2.8498419651        1.4962652959
 H        -6.9672556125        1.8899492023        1.9725351363
 H        -7.7024370667        1.8162393920        3.5274226623
 H        -7.6722491379        4.1425424195        2.5014149796
 H        -9.3792366803        3.5459611552        2.6634671865
 H       -10.0616816218        6.7666431143        1.8949352053
 H       -11.5151156132        6.7618003500        0.7920683032
 H       -10.7263398467        9.1219235535        1.1462765727
 H       -10.2648189087        8.6200220170       -0.4870379266
 H        -5.2789250539        9.1839525658       -0.1492028136
 H        -5.1050768711       10.6401865630       -0.7451987423
 H        -4.1138892455        9.2956514771       -2.5061644596
 H        -5.6106117275        9.6976394651       -3.1489429149
 H        -8.5316710836        6.6306046975       -5.1796518126
 H        -7.4479560031        6.6320395983       -6.5543254025
 H        -7.6633195329        8.0751963036       -5.7494950096
 H        -5.5719154607        8.9149430422       -5.0903418650
 H        -4.4589232253        7.6820609921       -6.0547650231
 H        -3.8129501155        8.6719217802       -4.8480770247
 H        -4.1604801740        5.4747239154       -3.2592961820
 H        -3.1098870794        6.4527568265       -4.2580572704
 H        -4.2705120627        5.3472641459       -5.0315956410
 H        -9.9590487668       11.1323435445        0.7091850037
 H        -9.9003805763       10.5091755446       -0.8784993148
 H        -8.9712273093       11.9114934108       -0.3927919939
 H        -6.4912514274       11.5155758698        0.9909796200
 H        -6.6202907890       10.0212903208        1.8464257109
 H        -7.8753682295       11.2782739761        2.1313354906
 H        -9.3055250778        3.6385762282       -1.9406949321
 H       -11.0572290372        4.0420611057       -1.5788459775
 H       -10.3831847279        2.6835198403       -0.9236401110
 H       -11.9413883954        4.6137331009        0.4981771540
 H       -11.1091530190        4.4638035831        2.0402768289
 H       -11.3362290089        3.0556147051        1.1261166570
 H       -10.9942200261       -0.6467201214        2.0222256232
 H       -10.7718972463       -0.1788994669        3.7052154665
 H       -10.5767845578       -1.9544450552        3.1402980355
 H        -7.9829342605       -1.8996690699        4.0985828510
 H        -8.4328882568       -0.3619751469        4.7479670486
 H        -6.9493971034       -0.5340567524        3.6838286507
 H       -13.7383512108       -3.0580431833       -2.1222364030
 H       -14.4037418022       -1.4624660354       -2.0743010249
 H       -14.0688105147       -2.2193824081       -0.4792182729
 H       -12.6024936035       -1.6894587293       -3.7189513836
 H       -10.9694343671       -2.2985737844       -3.3246007777
 H       -11.2678230043       -0.5617188532       -3.2649806970
 H       -17.8233990441        0.0438383658        1.9524335863
 H       -17.1457049121       -0.2279871839        3.5262152129
 H       -16.2040281015       -0.8410380240        2.2027152532
 H       -17.8408499568        2.4574233106        2.0988047704
 H       -16.6980415979        3.5410251243        2.8671442722
 H       -17.6765384878        2.3870004845        3.7922259545
 Na       -7.0640425908        4.8477014411       -1.7791182063
