117

 C       -15.0016389843        0.7135696722        4.8602318860
 C       -14.6830683015        1.4595296703        3.6453217393
 O       -13.6347654985        2.0366959923        3.4293794046
 C       -15.8503947901        1.4852223104        2.5506597056
 C       -15.4021811586        1.4683124695        1.0917463023
 O       -15.9201560935        2.2145610255        0.3023855194
 C       -14.3055060726        0.5149263306        0.6109122917
 C       -13.9625717601        0.7030259636       -0.8548625731
 C       -12.5645067673        0.1802997953       -1.2434793138
 O       -11.5653590013        0.8435938605       -1.2648631383
 C       -12.3217557858       -1.3465666559       -1.5059271441
 C       -11.5171148558       -2.0146286366       -0.2996429757
 O       -12.2357402759       -2.5146925016        0.5569286569
 C       -10.0379151314       -1.9311094325       -0.2034470944
 C        -9.2970841683       -2.5647211980        1.0574636096
 C        -8.2895068094       -1.5235162557        1.5021251728
 O        -7.1750013401       -1.4257258804        1.1306386077
 C        -8.8377156835       -0.4763836026        2.5971352085
 C        -8.7945875307        0.9758361373        2.0224366154
 O        -9.4897417357        1.2999157040        1.0867783291
 C        -7.7217166952        2.0748668412        2.5360057114
 C        -8.2635691839        3.4591608477        2.0845775739
 C        -8.4578233880        3.5955528494        0.6107003313
 O        -7.5171186293        3.5346646639       -0.1608193715
 C        -9.8441733907        4.1843566115        0.0765661211
 C        -9.6303566056        5.7197509430       -0.1585295447
 O        -9.0051494431        6.1001523833       -1.1120716635
 C       -10.0855534676        6.7904891767        0.8703471889
 C        -9.8761781026        8.2014747223        0.2938993734
 C        -8.5407946129        8.8251232876        0.7742692898
 O        -7.8592968589        8.2947326327        1.6010755367
 C        -8.0393761510       10.2563282970        0.2038711768
 C        -7.2637905448        9.8567135633       -1.1384593521
 O        -7.8898870150        9.6804733306       -2.1557444885
 C        -5.8018607414        9.5718531614       -1.1394158661
 C        -5.2689691599        9.0252147336       -2.4916719741
 C        -5.5763888472        7.5601502054       -2.6882668523
 O        -6.1894148238        6.9837739637       -1.8164165089
 C        -5.0645415140        6.8497564203       -3.9884938792
 C        -6.3508456650        6.2348783547       -4.5883240376
 O        -6.6932793356        5.0987357602       -4.2523439838
 C        -7.2784985156        6.9859066900       -5.5180436181
 C        -4.3146055090        7.8537063763       -4.9809908093
 C        -4.0453197577        5.7369511138       -3.5685577045
 C        -9.2005136484       11.1735483080        0.0139084837
 C        -6.8899710390       10.8013723328        1.1541942340
 C       -10.1769545225        3.5484578671       -1.2839666219
 C       -11.1048122323        3.9484955481        0.9636161306
 C       -10.3135582663       -0.7446188499        2.9357341112
 C        -8.0244786440       -0.6222051877        3.8894822389
 C       -13.5807807252       -2.0827836374       -1.7831595976
 C       -11.4069860043       -1.3615954276       -2.8275260251
 C       -16.8474982931        0.2893597974        2.7576145223
 C       -16.6545881187        2.7516143108        2.8085024103
 H       -14.7985663142       -0.3397227631        4.6230410874
 H       -15.9734732642        0.7966812909        5.3809760256
 H       -14.2880716037        0.9957247658        5.5286200804
 H       -14.6084525072       -0.5367142044        0.7415617079
 H       -13.4664089366        0.5281260797        1.2736091122
 H       -13.8451071792        1.7373069591       -1.0084287328
 H       -14.8329164242        0.3515975509       -1.4381294749
 H        -9.7545007152       -0.9231618607       -0.2982665532
 H        -9.5803505947       -2.5124792270       -1.0150358981
 H        -8.7449088255       -3.4603808586        0.8209378910
 H       -10.0577121059       -2.6983338324        1.8613336047
 H        -6.7286682977        1.8510517521        2.2545350763
 H        -7.7262835302        2.1098116560        3.5884343432
 H        -7.6329459005        4.2309846932        2.4925800111
 H        -9.2709307014        3.4967125969        2.5800400806
 H        -9.4919009866        6.6735908674        1.7976144484
 H       -11.1899139105        6.6586250863        1.0967404268
 H       -10.7073579541        8.9138717201        0.6178514685
 H        -9.9277342885        8.1899972812       -0.7625010141
 H        -5.6081826409        8.8218509838       -0.3487423127
 H        -5.2214954289       10.3676727077       -0.6845735128
 H        -4.2617256877        9.1932184753       -2.6760877181
 H        -5.8376924746        9.4866537876       -3.2772924369
 H        -7.2948310535        6.5824314314       -6.5166888289
 H        -7.0045763657        8.0304991007       -5.6928099995
 H        -8.3191071725        7.0182200713       -5.2187875786
 H        -4.6723577343        8.9021202358       -4.9319887898
 H        -4.3829983608        7.5069513142       -5.9754508726
 H        -3.2493974366        7.9467317849       -4.6461078602
 H        -4.6013994290        4.8346842561       -3.2354878960
 H        -3.4608378290        6.0470623273       -2.7220712734
 H        -3.4055644432        5.4961935576       -4.4594745790
 H        -9.7446461623       11.4585918382        0.9371151777
 H       -10.0280855014       10.8843775093       -0.6722371705
 H        -8.9449053358       12.1382540249       -0.4438725173
 H        -6.3225347710       11.5994147031        0.7118823505
 H        -6.2388913013        9.9574451602        1.3757304224
 H        -7.4357558605       11.0689586449        2.0826930424
 H        -9.2686404226        3.6174552645       -1.9172456230
 H       -10.9929516932        4.0994502251       -1.7307780983
 H       -10.4650113002        2.5050401042       -1.0879901394
 H       -11.9792378858        4.4728841238        0.4713930645
 H       -11.0176010043        4.4654022945        1.9175290751
 H       -11.3920148476        2.9596501964        1.1147717190
 H       -10.9737987101       -0.9187009725        2.1474423189
 H       -10.7092149705       -0.0390421160        3.6663501249
 H       -10.3303706812       -1.7011985603        3.4524848142
 H        -8.3435704602       -1.5014299411        4.4265645078
 H        -8.0721809526        0.2604509329        4.5324451504
 H        -6.9844305747       -0.7690293184        3.6249075627
 H       -13.3261693169       -3.1623892904       -1.7951597624
 H       -13.9823653054       -2.0226913485       -2.7679126808
 H       -14.3590755646       -2.0250417072       -0.9636649595
 H       -11.8196463322       -0.7734490899       -3.6448182241
 H       -11.3084552914       -2.3554329323       -3.1992330694
 H       -10.3766583498       -1.0904383203       -2.6061024672
 H       -17.5072296534        0.1709497761        1.8684297075
 H       -17.3943350367        0.3521923198        3.6642620933
 H       -16.1886067231       -0.6419121647        2.8517562691
 H       -17.4167487021        2.8404270172        2.0463021297
 H       -16.0953006873        3.7200005242        2.7426671217
 H       -17.2124202334        2.8409675694        3.7800461488
 Na       -7.2169197334        4.9328685964       -1.9585056985
