117

 C       -14.6935830443        0.8739736789        4.9206040124
 C       -14.5270654377        1.4142771102        3.4762903282
 O       -13.4798851118        1.9718124760        3.2128971489
 C       -15.8411904998        1.5303557988        2.5898857168
 C       -15.3512364101        1.5702412380        1.0871555777
 O       -16.0278119161        2.2029076125        0.3227611134
 C       -14.1502698605        0.6837078181        0.7007785327
 C       -14.1969111069        0.4404015105       -0.8341954283
 C       -12.7435134866       -0.0595087010       -1.2656847606
 O       -11.8403814646        0.6822059801       -1.0512150969
 C       -12.4436380009       -1.5233598405       -1.6404222930
 C       -11.6579240084       -1.8917323771       -0.3093920044
 O       -12.2805109609       -2.2913565591        0.6698047950
 C       -10.1524763430       -1.5278005701       -0.1741066382
 C        -9.4875899404       -2.2677751039        1.0012501002
 C        -8.4675131422       -1.4905702802        1.7242232141
 O        -7.3004962232       -1.6871766215        1.6362276637
 C        -8.9223568036       -0.2822728096        2.7617411073
 C        -8.7501628245        1.0240178634        2.0145683892
 O        -9.5228083162        1.3931342899        1.1476691375
 C        -7.6930701493        2.0786677300        2.3709878453
 C        -8.1784427068        3.4907313051        2.0212710880
 C        -8.3533853618        3.7071038045        0.5281763792
 O        -7.4147555183        3.5437257927       -0.2149408471
 C        -9.7601775902        4.3229717307        0.0023586579
 C        -9.5258655541        5.8768246158       -0.3750880960
 O        -8.9211996383        6.1968675709       -1.3875671339
 C       -10.1255537420        6.9338906749        0.5985833886
 C        -9.8147523799        8.3835094673        0.2541084483
 C        -8.4514426286        8.8938981838        0.8266645108
 O        -7.7293907437        8.2336743434        1.5350422512
 C        -7.9733330569       10.2868124400        0.2507529235
 C        -7.3888979561        9.8293112113       -1.1431358237
 O        -8.1738924763        9.5838659423       -2.0107095277
 C        -5.8759766110        9.7167404423       -1.2909466839
 C        -5.3289970480        8.9576947437       -2.5347291719
 C        -5.6442191235        7.4289520675       -2.5489070265
 O        -6.1985755244        6.8471829410       -1.6547034013
 C        -5.0787732279        6.6191348870       -3.8274890831
 C        -6.2306943152        6.1106990691       -4.7335987775
 O        -6.8928226946        5.1418286578       -4.3385622882
 C        -6.7897510353        6.9324846017       -5.8487828280
 C        -4.1213077278        7.4771698867       -4.7745770955
 C        -4.2032690909        5.4550070522       -3.2203861235
 C        -9.1787168713       11.1576638976       -0.1103643823
 C        -7.0227662368       10.9575342666        1.3175605791
 C       -10.1582418929        3.5133545717       -1.2485062669
 C       -10.9808100421        4.1052229394        0.9834637064
 C       -10.3765290977       -0.4493060719        3.2144882757
 C        -7.8727305645       -0.4854334663        3.8938043221
 C       -13.7047508662       -2.4542752153       -1.8327116249
 C       -11.5260568177       -1.6637559203       -2.8745215860
 C       -16.8125722758        0.3020624597        2.6409488870
 C       -16.4142885620        2.9327213636        2.8606405047
 H       -15.2679394139       -0.0953979335        4.7628455789
 H       -15.4005796583        1.5489721804        5.5161467132
 H       -13.8785023639        0.7615034322        5.5853349980
 H       -14.1608187020       -0.2629765872        1.2478131830
 H       -13.1477118228        1.1171553905        0.9803101344
 H       -14.5124339367        1.4027846326       -1.2928647171
 H       -14.9217469449       -0.3582733744       -0.9694524924
 H       -10.0203624953       -0.4303181340       -0.1058869463
 H        -9.5494254261       -1.9141367028       -1.0205651694
 H        -9.0114194046       -3.1448078421        0.6351911915
 H       -10.3442242599       -2.5478570205        1.6502589403
 H        -6.6656203177        1.8761996132        1.9037683707
 H        -7.3529899730        2.0672206081        3.4848674673
 H        -7.5251109550        4.1527384916        2.5507913243
 H        -9.1631945006        3.5813571767        2.5379575204
 H        -9.7652942149        6.6986732532        1.5592063859
 H       -11.2263619000        6.8333614744        0.6178217728
 H       -10.6247025388        9.0044906961        0.6792241867
 H        -9.8722304525        8.5901192548       -0.8014734384
 H        -5.5357051564        9.2375370981       -0.4232116736
 H        -5.2994982950       10.7178334315       -1.2493747737
 H        -4.2175083705        9.1554455385       -2.6798349048
 H        -5.9102506095        9.3856107367       -3.4681817400
 H        -6.1110127356        7.2853727176       -6.5865885224
 H        -7.2859615520        7.8780170693       -5.5306336156
 H        -7.4760616532        6.2544471455       -6.4205503494
 H        -4.6300710482        8.1040394137       -5.4671426384
 H        -3.7062635127        6.8075079971       -5.4561731727
 H        -3.3620818289        8.0189558459       -4.1741450094
 H        -4.6321333148        4.9935083944       -2.3847728967
 H        -3.2236698323        5.8746463900       -2.9312302464
 H        -4.0557973135        4.7034278279       -4.0014013162
 H        -9.8599193914       11.2467721359        0.6777002599
 H        -9.8295019268       10.8863307492       -0.9277864559
 H        -8.9300527750       12.1351871094       -0.3601347096
 H        -6.4352868348       11.7427009812        0.8394264938
 H        -6.3975879790       10.1949215611        1.7099156650
 H        -7.6448400087       11.3333030660        2.1607856795
 H        -9.6929204471        3.9469914009       -2.1255353046
 H       -11.2290558752        3.6447766674       -1.4013489923
 H        -9.8462010025        2.4975685895       -1.0527756824
 H       -11.9671841529        4.3667149176        0.5038171623
 H       -10.8273324629        4.7250781180        1.8621650142
 H       -11.1272723427        3.1004761545        1.2498432572
 H       -11.0606647405       -0.3200776656        2.4232905108
 H       -10.6249365401        0.2194707754        4.1024026003
 H       -10.5946434801       -1.4542511867        3.5791042033
 H        -7.7274729698       -1.5398600233        4.0596720048
 H        -8.1965037309        0.0465050729        4.8323659955
 H        -6.9252782742       -0.0521944430        3.6702139457
 H       -13.5961753344       -3.3627759203       -2.4353832371
 H       -14.4356824236       -1.8438583863       -2.3361343453
 H       -14.2031706833       -2.8008890480       -0.9529624191
 H       -12.0999848968       -1.7025070272       -3.8463213842
 H       -10.8633739630       -2.5436238406       -2.8298385031
 H       -10.8431191206       -0.7932881824       -2.9898030625
 H       -17.5823023781        0.4904911520        1.9137183245
 H       -17.2388025893        0.2079484652        3.5907018752
 H       -16.2998518813       -0.6222954438        2.3773377491
 H       -17.0921080724        3.1345898349        2.1406464033
 H       -15.7404959498        3.7429897356        2.7917602369
 H       -16.9389698154        3.0551894582        3.8088491629
 Na       -7.1733253913        4.6524745607       -2.1953811009
