117

 C       -14.9658634233        0.6739845753        5.0033853930
 C       -14.7644491399        1.3527679466        3.6184351622
 O       -13.8204656479        2.0858897409        3.3077016772
 C       -15.9410810781        1.3606073984        2.5562318433
 C       -15.4150284043        1.4720363566        1.1193264456
 O       -15.8784296105        2.3218779489        0.3700174501
 C       -14.3047696321        0.5183944803        0.6354560870
 C       -13.8064263241        0.7860549870       -0.7795969688
 C       -12.4552276893        0.2125054836       -1.1690326019
 O       -11.5255638800        0.9617043005       -1.3270674473
 C       -12.2647052038       -1.3835849030       -1.4973699690
 C       -11.5065021370       -1.9882962250       -0.2958903420
 O       -12.1110072728       -2.6252435479        0.5533540111
 C        -9.9451478268       -1.9522673142       -0.3328123099
 C        -9.2644998696       -2.6001794528        0.9035165268
 C        -8.3506960283       -1.4725209595        1.5421441091
 O        -7.2137504777       -1.2769085454        1.0945025382
 C        -8.9038322791       -0.4976316110        2.5994438578
 C        -8.7829065017        0.8678954280        1.9230594542
 O        -9.4311063677        1.2743570354        0.9768491757
 C        -7.8196685431        1.9386527100        2.5529688472
 C        -8.3685036099        3.3349638752        2.1928590484
 C        -8.4719728363        3.5846189689        0.6634168880
 O        -7.5016749723        3.4255054839       -0.0600439067
 C        -9.8455474571        4.2294553505        0.0904392622
 C        -9.6147150346        5.7493896108       -0.0682649933
 O        -8.9847884122        6.0764275032       -1.0843062073
 C       -10.1270936379        6.8619863736        0.8735782475
 C        -9.8763144401        8.3132402241        0.3736946106
 C        -8.5156771367        8.8551226409        0.8305221280
 O        -7.8873880592        8.2234100273        1.6786334393
 C        -7.9855773191       10.1231922041        0.1708035127
 C        -7.2754792719        9.7666410018       -1.2329934042
 O        -7.9226028462        9.7674348944       -2.2347483207
 C        -5.7473058168        9.4729463856       -1.1071983971
 C        -5.2080446143        9.1024106510       -2.4296248201
 C        -5.4830917373        7.6203748125       -2.6875494936
 O        -6.0718365100        6.9448309536       -1.8703090552
 C        -5.0609241199        6.9602460377       -4.0028329589
 C        -6.4015722872        6.2987239380       -4.5678401692
 O        -6.7017945448        5.1415072640       -4.2359544202
 C        -7.4061695819        7.0298277232       -5.5055310259
 C        -4.4617270891        7.8465630255       -5.0720831169
 C        -4.0455718317        5.9055674124       -3.5969146201
 C        -9.1635554932       11.0921093602       -0.0409571413
 C        -6.9804150859       10.7507202628        1.2573484462
 C       -10.1615943132        3.5367868385       -1.3085709156
 C       -11.0880917517        3.9193155356        1.0115140440
 C       -10.4147383389       -0.6997736326        2.9896619691
 C        -7.9139847741       -0.6239113958        3.7539305634
 C       -13.5849557339       -2.0937941320       -1.7718001238
 C       -11.3573632789       -1.4081953175       -2.8043708174
 C       -16.9347883014        0.1820247895        2.7052332785
 C       -16.6494345331        2.7435094854        2.7669133229
 H       -14.6301614297       -0.3881462731        4.9274386597
 H       -16.0050960088        0.6669578647        5.3555844558
 H       -14.3236356533        1.1626737091        5.7850708910
 H       -14.5122382276       -0.5200799824        0.7658935045
 H       -13.4899400039        0.6143288433        1.3839906084
 H       -13.6558650072        1.8680556273       -0.9135721003
 H       -14.5693306213        0.5179003419       -1.4721879448
 H        -9.6037306264       -0.9379094652       -0.3594577963
 H        -9.5269992079       -2.4844843177       -1.1750419142
 H        -8.6205469682       -3.4203544985        0.6599656577
 H       -10.0660472822       -2.8587002314        1.6201605211
 H        -6.8472004907        1.8169032409        2.0279942868
 H        -7.5927294568        1.8721599669        3.6911257060
 H        -7.6262575945        4.0540194407        2.5231691310
 H        -9.3175337124        3.4808653375        2.7409581046
 H        -9.5386534311        6.7882769108        1.7787139770
 H       -11.2114782756        6.6904567206        1.1147935835
 H       -10.6440295892        8.9907849104        0.7702373447
 H        -9.9344672091        8.4216395327       -0.7049749145
 H        -5.4671590352        8.7803498876       -0.4020315139
 H        -5.2425210695       10.3524679637       -0.5870463939
 H        -4.1203270330        9.2770791903       -2.5241142149
 H        -5.7097829305        9.7235175804       -3.2350478350
 H        -7.5544760125        6.4174332723       -6.3307077161
 H        -7.0183911379        7.9211511650       -5.9560811003
 H        -8.4381040697        7.3470329311       -5.1888602694
 H        -4.9827482078        8.7423743446       -5.1384868213
 H        -4.4450970914        7.2322828898       -5.9769964633
 H        -3.4552858171        8.1499713099       -4.8552769716
 H        -4.4836411343        5.1380253326       -3.0704195539
 H        -3.3154383587        6.4038742992       -2.8497116266
 H        -3.4949085929        5.5681767561       -4.4927729911
 H        -9.7633498637       11.2953960262        0.8101287357
 H        -9.9050060115       10.8797259708       -0.8259038598
 H        -8.8389987751       12.0624664630       -0.3643122764
 H        -6.6859121483       11.7567209926        0.9018317533
 H        -6.1020841293       10.1645025024        1.3804471896
 H        -7.5943570149       10.7837848910        2.1790268638
 H        -9.2622437062        3.3273764895       -1.8981390649
 H       -10.9185448561        4.1636088792       -1.8436674041
 H       -10.6580798740        2.6181781415       -0.9967628266
 H       -12.0283167481        4.2169942486        0.5188963637
 H       -11.1037154230        4.4455972106        1.9448695224
 H       -11.1516033409        2.8591784406        1.2333893673
 H       -10.9978945639       -0.7264705618        2.1213555869
 H       -10.8033259370        0.0359140843        3.7011482929
 H       -10.5685573918       -1.6598018733        3.3916971815
 H        -8.0892749803       -1.5433545412        4.2730487153
 H        -8.0491437277        0.1882282414        4.5068554494
 H        -6.9205390520       -0.6242050002        3.3896622379
 H       -13.4040644442       -3.1694228675       -1.9897645817
 H       -14.0643805254       -1.8605200015       -2.7122596095
 H       -14.2048230387       -2.0687035885       -0.9191761643
 H       -11.7634694880       -0.7513061226       -3.5805124377
 H       -11.4909628227       -2.4014966620       -3.2182723258
 H       -10.2895646300       -1.3568779833       -2.6337697559
 H       -17.5362836047        0.0689394240        1.8021610817
 H       -17.5551901495        0.3024417348        3.5858213225
 H       -16.3593718786       -0.7189850024        2.8749150628
 H       -17.4467382097        2.8913343360        2.1196445132
 H       -15.9426879011        3.5172992971        2.5409987198
 H       -17.0479427675        3.0378152272        3.7610201443
 Na       -7.2360907418        4.9948013053       -1.9313958786
