117

 C       -14.9433769343        0.6764917687        4.8821130762
 C       -14.5797779426        1.4943608163        3.6625718154
 O       -13.5033275165        1.9954106909        3.4677516444
 C       -15.8464847119        1.6197930069        2.5540852783
 C       -15.3606786695        1.5190093539        0.9861321382
 O       -15.9538435650        2.1336551556        0.1286185486
 C       -14.2591125333        0.4812033378        0.6000415730
 C       -13.9862445329        0.5728180601       -0.9222262403
 C       -12.5992305146        0.1021561684       -1.1977529497
 O       -11.6408167159        0.8993000266       -1.1616369954
 C       -12.3487039685       -1.4871614363       -1.5776135798
 C       -11.6246689552       -2.0430365867       -0.2410315566
 O       -12.3347392044       -2.4246688231        0.6502823487
 C       -10.1197658005       -1.8651167856       -0.2419825753
 C        -9.3630006040       -2.5128722820        0.9879077658
 C        -8.3031222888       -1.5335133071        1.5971688436
 O        -7.1639595048       -1.6095601086        1.1919561544
 C        -8.7431378757       -0.4324417213        2.7240358791
 C        -8.7058239351        1.0783080642        2.0358469323
 O        -9.5484364343        1.3170427046        1.1754625831
 C        -7.7712128677        2.1183772611        2.4654784557
 C        -8.1920435379        3.5991706144        2.0981949878
 C        -8.5235085101        3.7231120886        0.5941017412
 O        -7.5969562045        3.6254842353       -0.2119622963
 C        -9.8792634016        4.2602046668        0.0188578496
 C        -9.5608921470        5.7467470701       -0.2285138387
 O        -8.9805377226        6.1214490743       -1.2266514175
 C       -10.0487302273        6.7594092444        0.7894060266
 C        -9.8434235147        8.1915931006        0.2726665999
 C        -8.5140942644        8.8035849798        0.7827939126
 O        -7.8009813585        8.2423756151        1.5824215011
 C        -8.0252761998       10.2889968344        0.2375286731
 C        -7.3336993555        9.8534736005       -1.1242508071
 O        -8.0140037091        9.6453910153       -2.1468594622
 C        -5.7877886449        9.6592459316       -1.1370253075
 C        -5.3349249504        9.0912738109       -2.4924975950
 C        -5.6547293358        7.5811032788       -2.6522326360
 O        -6.2303105677        6.9302776582       -1.8051643237
 C        -5.0656802706        6.7319755796       -3.9590571918
 C        -6.3077504104        6.1124263320       -4.6536775414
 O        -6.7132889096        5.0568203622       -4.2275999290
 C        -7.0627297791        6.9717870487       -5.5787271935
 C        -4.2649430092        7.7664558231       -4.8504979484
 C        -4.0952012652        5.5674253495       -3.5486403892
 C        -9.1040284299       11.2557210230        0.0002888034
 C        -6.9814128973       10.8936381484        1.1568082398
 C       -10.1402970238        3.5823382834       -1.3750184977
 C       -11.0424689895        3.9823222854        1.0033778044
 C       -10.2951224498       -0.6426757846        2.9882106319
 C        -8.0330967265       -0.6320362856        4.0765602263
 C       -13.6737409356       -2.2196201852       -1.8319902623
 C       -11.4564134314       -1.3817482645       -2.8761182974
 C       -16.7237058060        0.3308888713        2.7652835295
 C       -16.7162111999        2.8507637813        2.9070498277
 H       -15.1552147111       -0.3456984238        4.7499057931
 H       -15.7517046845        1.1505425023        5.3816962900
 H       -14.1286973937        0.8493687475        5.6048868608
 H       -14.5697522515       -0.5591851794        0.8623908916
 H       -13.3784164542        0.5664261008        1.2149632356
 H       -13.9910462222        1.6346554657       -1.1763938143
 H       -14.7783253858        0.0019292953       -1.4748475514
 H        -9.9029665326       -0.7822417749       -0.3048312855
 H        -9.6703371627       -2.3596738153       -1.0930660613
 H        -8.7022575201       -3.3456062064        0.6316673081
 H       -10.1407235299       -2.8290912488        1.6595133879
 H        -6.8011278814        1.9519724797        2.0549000134
 H        -7.5800892256        1.9999536966        3.4726739031
 H        -7.2284854332        4.0911469152        2.3551334392
 H        -8.9507516716        3.9940939688        2.7461386972
 H        -9.5461209619        6.5611755712        1.7886204835
 H       -11.1082091114        6.5941352970        0.8872403943
 H       -10.6761524135        8.8593865231        0.5090755000
 H        -9.8217567862        8.1560855488       -0.8428159242
 H        -5.3854473051        9.0676983761       -0.2224007469
 H        -5.3069902901       10.5784331772       -0.9397771228
 H        -4.2713897914        9.1496095990       -2.6635006379
 H        -5.8370757090        9.6247063474       -3.2362657486
 H        -6.9764069942        7.0010241174       -6.7177577604
 H        -6.8777022079        8.0164268884       -5.2992623329
 H        -8.1035173383        6.7964664681       -5.4375894047
 H        -4.7656118678        8.8024107935       -4.9753674585
 H        -4.1722338215        7.4082410625       -5.9175048206
 H        -3.3014922538        7.9813262944       -4.3453074389
 H        -4.7897222430        4.7009103890       -3.2019350482
 H        -3.4820435910        5.7875682180       -2.7322514200
 H        -3.5488332557        5.2475915597       -4.4169565231
 H        -9.6686553009       11.5187705052        0.9404444247
 H        -9.9078120521       10.9458943234       -0.6380995610
 H        -8.8834488884       12.2469214257       -0.4683488920
 H        -6.3328171600       11.5656951352        0.6189924667
 H        -6.3844890838       10.1218608674        1.6997673706
 H        -7.5980366477       11.3905767607        1.8472840875
 H        -9.3334403471        4.0103062903       -1.9553098940
 H       -11.0517285602        3.9463519701       -1.7944678679
 H       -10.0691722645        2.5046771697       -1.3196989332
 H       -11.9611943011        4.4340341833        0.7021990949
 H       -10.8154220039        4.4014950503        1.9990581430
 H       -11.2783524639        2.8926458572        1.0834397646
 H       -10.9654868818       -0.7126790132        2.0760351827
 H       -10.6419913335        0.0515132953        3.7154610660
 H       -10.4989449742       -1.6348321044        3.4517998899
 H        -8.2216454293       -1.6833066548        4.3608103041
 H        -8.2860704918        0.0605687330        4.8385751614
 H        -6.9227452865       -0.5658226040        3.9194007311
 H       -13.5911023602       -3.3016928060       -1.8763943051
 H       -14.2421255713       -2.0100946787       -2.7596642189
 H       -14.3072730207       -2.0742517551       -0.9030537251
 H       -12.0529648946       -1.1087017651       -3.7369996298
 H       -10.8488141804       -2.2487532612       -3.1651106382
 H       -10.6984109312       -0.5988911044       -2.7143700084
 H       -17.4983716080        0.3979668539        1.9860300609
 H       -17.1968086447        0.2641929976        3.7823052543
 H       -16.1576944028       -0.6050255899        2.6035163947
 H       -17.5670995843        3.0601919650        2.1194897404
 H       -16.1992032412        3.8377325151        2.9620524059
 H       -17.2337988703        2.7982204335        3.8487614352
 Na       -7.1935791998        4.8110929301       -2.0257137879
