117

 C       -14.4849995855        1.0769795488        4.9504197522
 C       -14.3083135206        1.5861031507        3.4770650779
 O       -13.1964595105        1.8814546405        3.0621047194
 C       -15.5888348055        1.7805462642        2.6550949111
 C       -15.3234467434        1.7686605540        1.1204524927
 O       -16.1627120762        2.2921430744        0.4013947012
 C       -14.2120965119        0.8139687263        0.5576064374
 C       -14.5148325181        0.2838917854       -0.8204749694
 C       -13.1651079104       -0.1545694377       -1.5309800517
 O       -12.6651236880        0.6964444580       -2.2606750767
 C       -12.5802647548       -1.6378589141       -1.5041206204
 C       -11.8458946117       -2.0097401534       -0.0995276353
 O       -12.3608903145       -2.8005766758        0.6520331419
 C       -10.3240814608       -1.5334060024        0.1541986754
 C        -9.6612855919       -2.1596792623        1.4270390771
 C        -8.5282018561       -1.2962721916        2.0259748986
 O        -7.3312384463       -1.6172636112        1.9739042659
 C        -8.9258454597       -0.0961837993        2.9366774348
 C        -8.5692059472        1.1332598930        2.1156021217
 O        -9.3576196692        1.5156300783        1.2293432899
 C        -7.3962708746        2.0796289845        2.3428903357
 C        -7.9568989550        3.4937655226        2.0425027977
 C        -8.3262527778        3.7816407394        0.5218667315
 O        -7.3864869014        3.7417965542       -0.2923591945
 C        -9.8249780555        4.2794979935        0.0933388439
 C        -9.7211201048        5.7778128049       -0.2596101367
 O        -9.0386337135        6.1095397383       -1.2187244565
 C       -10.4102079783        6.8954753607        0.5159004928
 C       -10.0308419623        8.3273276461        0.1132248041
 C        -8.7029114308        8.8384621403        0.6824663137
 O        -8.1013325576        8.2039271375        1.5391917129
 C        -8.0372449305       10.1201018222        0.0590180175
 C        -7.3218371022        9.7302226973       -1.3767221441
 O        -8.0086153375        9.7668633663       -2.4030893338
 C        -5.7659718030        9.5546654156       -1.4269024269
 C        -5.2372740543        8.7316260275       -2.5908087884
 C        -5.4008945415        7.2566747091       -2.5875843883
 O        -6.0857313561        6.6794224271       -1.7595495451
 C        -4.8626205428        6.3812482457       -3.8196415873
 C        -6.1911287249        6.1744326243       -4.7796363905
 O        -7.2241182189        5.6941377344       -4.3560963993
 C        -6.0425346846        6.5564683376       -6.1888248134
 C        -3.6517490362        7.0678580607       -4.4168582016
 C        -4.3372468360        5.0640682403       -3.2043529083
 C        -9.0479639605       11.2529258484       -0.2648511866
 C        -6.9607831260       10.5919851520        1.0964388333
 C       -10.1301765225        3.5453313231       -1.2931306744
 C       -10.8523882171        4.0721522566        1.2457345682
 C       -10.4284120079       -0.0218634170        3.3598551589
 C        -8.0589619989       -0.2435002337        4.1997457291
 C       -13.7017943913       -2.5939953842       -1.7544673876
 C       -11.4694685435       -1.7508140880       -2.6545703214
 C       -16.5506452940        0.5116429094        2.8058779885
 C       -16.3120221850        3.1158552969        3.0469753398
 H       -14.4672341957       -0.0192446529        4.9180012115
 H       -15.4832476811        1.3278122785        5.3460655115
 H       -13.6958258421        1.3426959808        5.7554977652
 H       -14.1227523464       -0.1206159445        1.1719395251
 H       -13.2993980094        1.4110302252        0.5473743001
 H       -14.9498525972        1.0352367526       -1.4496523750
 H       -15.2373642119       -0.5913860457       -0.7146342074
 H       -10.1902480409       -0.4504130462        0.1675224629
 H        -9.6393256455       -1.8254050135       -0.7005841310
 H        -9.3715900652       -3.1530041507        1.1135062279
 H       -10.4030962709       -2.3577651279        2.2116346438
 H        -6.4948482132        1.9785240808        1.5983807034
 H        -6.9539870410        1.9923622714        3.3593225561
 H        -7.1747078941        4.2410691930        2.2128308440
 H        -8.7738020448        3.7114210241        2.7436096255
 H       -10.2725001745        6.7018897535        1.5534937083
 H       -11.4802190083        6.7122536506        0.3665983125
 H       -10.8787288316        9.0643276202        0.2012743438
 H        -9.8288836048        8.2969562686       -0.9229284824
 H        -5.3182415226        9.0731715590       -0.4977413774
 H        -5.3964642506       10.5058309970       -1.6396680948
 H        -4.1074759046        8.9236112042       -2.6884662780
 H        -5.7843646650        9.0770921601       -3.5349018937
 H        -5.0805185080        6.1787427055       -6.6632923198
 H        -5.9399917212        7.6361063117       -6.3935124784
 H        -6.7913811715        6.1010962197       -6.7785881154
 H        -4.0005729972        7.9591825443       -5.0024626750
 H        -3.0579802136        6.4277485391       -5.0951564410
 H        -2.9778078816        7.2730555124       -3.6253314487
 H        -5.1849836382        4.4737109281       -2.7664720321
 H        -3.6010524499        5.2685825037       -2.4827975485
 H        -3.8838718812        4.4541841344       -3.9501022552
 H        -9.7198887764       11.5644967183        0.5293181742
 H        -9.7310335672       10.9498874122       -0.9808403586
 H        -8.6295355443       12.1739764403       -0.6124850785
 H        -6.3020634977       11.3255313272        0.7035433029
 H        -6.4942188498        9.7005734239        1.5543682451
 H        -7.4746943294       11.1213001393        1.8725313551
 H        -9.2280526272        3.0148626767       -1.6040894616
 H       -10.3843400149        4.2555714824       -2.0463654338
 H       -10.8788892280        2.7935430444       -1.1057598095
 H       -11.8184242915        4.2481545393        0.7860034209
 H       -10.7200705489        4.7086273201        2.1236014047
 H       -10.9099625146        3.0292300565        1.6164808826
 H       -11.1931482749        0.1793776889        2.5584977174
 H       -10.6682379093        0.7512400820        4.0520554405
 H       -10.6721957823       -0.9527085993        3.9129103671
 H        -8.1334751386       -1.2588710363        4.6324060511
 H        -8.3174847055        0.4479715190        4.9841709307
 H        -6.9878148315       -0.0940111325        3.9017616516
 H       -13.3355240493       -3.5820525427       -1.8451738733
 H       -14.2665637756       -2.3187352579       -2.6170835799
 H       -14.5144820654       -2.6099182961       -1.0170177791
 H       -11.7498214665       -1.8519342099       -3.6990916427
 H       -10.8770350733       -2.6570804140       -2.4319177788
 H       -10.7784315504       -0.9047801447       -2.7629845768
 H       -17.3537763357        0.5604581726        2.0978304243
 H       -16.9663745398        0.3640681583        3.7880488559
 H       -15.8975656522       -0.3029184043        2.5112226934
 H       -17.2533932872        3.2352593659        2.4481889896
 H       -15.7141374634        3.9352410337        2.7264261870
 H       -16.5902863284        3.2917142750        4.0126760634
 Na       -7.2892837092        4.9527515596       -2.2016388595
