117

 C       -14.3513451455        1.2054855586        4.9690863321
 C       -14.2017175511        1.6031272050        3.5298131150
 O       -13.1739567358        2.0649951511        3.1009973064
 C       -15.5484522375        1.6721344694        2.6032522529
 C       -15.2276113008        1.6764275482        1.0682555212
 O       -15.9194800510        2.2524270398        0.2834719110
 C       -14.0916383707        0.7997277073        0.5379437287
 C       -14.4500757563        0.1181802700       -0.8459361830
 C       -13.1796049236       -0.1776422716       -1.6004638126
 O       -12.7802041130        0.5469350235       -2.4484474870
 C       -12.5479168273       -1.6012324318       -1.4590401813
 C       -11.8582552840       -1.9652564564       -0.0606914776
 O       -12.4267319346       -2.7129013877        0.7221100142
 C       -10.5268892983       -1.3782108253        0.3015345941
 C        -9.8339694077       -2.1106083021        1.4780949241
 C        -8.7072963906       -1.3217475742        2.0554067766
 O        -7.6116716345       -1.6347085667        1.7759723559
 C        -8.9476456431       -0.0086189618        2.9595877339
 C        -8.6322073512        1.1997720606        2.0798568849
 O        -9.3335628426        1.3569029598        1.1147688315
 C        -7.5694961194        2.2524779589        2.4314389919
 C        -7.8827931692        3.7550337787        2.0720274804
 C        -8.2919058806        3.8685925942        0.6367793234
 O        -7.4777320963        3.6397146258       -0.2248999978
 C        -9.7513133131        4.3570426809        0.2111968250
 C        -9.6808738384        5.8621035382       -0.2834307657
 O        -9.0537113271        6.1964333511       -1.2723956537
 C       -10.4757300676        6.9049418107        0.5247678635
 C       -10.1631235825        8.3134369301        0.0974566885
 C        -8.7454619404        8.7591573642        0.5377867481
 O        -8.2684041913        8.1307806873        1.4493772757
 C        -7.9834808394       10.0379425975       -0.0775831665
 C        -7.1859104900        9.7013715174       -1.4270211512
 O        -7.8504342227        9.6404776625       -2.4343377823
 C        -5.6805585855        9.4434017618       -1.3059722050
 C        -5.2090889135        8.8407265346       -2.6920402046
 C        -5.3372103587        7.2677633659       -2.5967342945
 O        -5.8527048286        6.7785965839       -1.6237449759
 C        -4.8322578729        6.3331887731       -3.7990499096
 C        -5.9616637237        6.2143661120       -4.7997491897
 O        -7.0397239987        5.7696733852       -4.4043003706
 C        -5.7667246160        6.4479824116       -6.2841046442
 C        -3.6098016278        7.0134509102       -4.5721553539
 C        -4.4595004175        4.9919611983       -3.2417413680
 C        -9.0366943505       11.0784850866       -0.3549127001
 C        -6.9661373577       10.5157208478        0.9843672161
 C       -10.1920394806        3.4195534881       -1.0123920086
 C       -10.8928728409        4.1104731035        1.3077593242
 C       -10.4685990346        0.0812834116        3.3757421582
 C        -8.1356300800       -0.1255127837        4.2337167314
 C       -13.6551316627       -2.6699492589       -1.6626980139
 C       -11.4592336592       -1.7235890540       -2.5333398919
 C       -16.5794621460        0.5246910337        3.0478140935
 C       -16.1706471294        3.0537297634        3.0673105105
 H       -14.1725782891        0.1583220969        5.2726536071
 H       -15.3695365408        1.5018842742        5.3113270320
 H       -13.6601913047        1.7204186999        5.5253281928
 H       -14.0138547362        0.0245827818        1.2520295618
 H       -13.1875481538        1.3912017148        0.4073715059
 H       -15.0297476260        0.8660535028       -1.4071278700
 H       -15.0589758412       -0.7279694653       -0.7572994879
 H       -10.6007266826       -0.3113767073        0.5627559481
 H        -9.9251823895       -1.2623377394       -0.5546631154
 H        -9.5440510428       -3.1161352813        1.1450103351
 H       -10.6104239245       -2.3019681831        2.2323456176
 H        -6.7267918785        2.0770977184        1.8746425894
 H        -7.2886247225        2.2900826337        3.4539181621
 H        -6.9605343441        4.2562022678        2.3867883700
 H        -8.7142523627        4.1089723150        2.6894113847
 H       -10.3343242654        6.7468253630        1.6294372209
 H       -11.5495229823        6.6800605074        0.4116953758
 H       -10.7865015743        8.9395898139        0.6894852955
 H       -10.4848798730        8.5269030116       -0.9605774103
 H        -5.5597318029        8.7019799437       -0.5980673342
 H        -5.1358857987       10.4402183286       -1.1143384994
 H        -4.2438401027        9.0531006432       -3.0067141489
 H        -5.9469482235        9.1825445354       -3.3685702972
 H        -5.3012888305        5.6328596001       -6.7595853618
 H        -5.1253254816        7.2800882759       -6.5798777031
 H        -6.7252613950        6.5809879171       -6.8249455431
 H        -3.7680672939        8.0611767802       -4.7550046565
 H        -3.3798054148        6.4113934920       -5.4043607817
 H        -2.6457317178        6.9662589911       -4.0017606959
 H        -5.3455033504        4.3774876425       -3.3029587887
 H        -4.1282590745        5.0587929721       -2.1907106036
 H        -3.6688636723        4.4800818752       -3.8548153569
 H        -9.6522687044       11.2845837396        0.5035546021
 H        -9.7452380101       10.8977907168       -1.2147293510
 H        -8.6187702971       12.0545876137       -0.5343989551
 H        -6.4291483884       11.4329691419        0.6667002793
 H        -6.3234871975        9.7011039133        1.2240707347
 H        -7.5086292425       10.8333329174        1.9050247018
 H        -9.3522666447        3.2803070323       -1.7053958186
 H       -11.0387992160        3.9555783276       -1.5231916196
 H       -10.4959240895        2.4324010799       -0.6232602976
 H       -11.8853570220        4.5230534934        1.0391447942
 H       -10.6188852654        4.5240309070        2.2720680774
 H       -10.9532031232        3.0804472215        1.5115678660
 H       -11.1338873261        0.3116325313        2.6275685740
 H       -10.6549268369        0.9390361979        4.0431740179
 H       -10.7808671062       -0.7950049489        3.8779313481
 H        -8.5704595508       -0.8320278867        4.9093378932
 H        -8.1506268391        0.8223413353        4.8084216507
 H        -7.1510296294       -0.4206980655        4.0138200514
 H       -13.2651379616       -3.6571494664       -2.0022452539
 H       -14.4948201175       -2.4546336347       -2.3205525796
 H       -14.1513584181       -2.8232960007       -0.7157613799
 H       -11.9100521349       -1.5818859425       -3.5358709882
 H       -10.9436661029       -2.6520862979       -2.6658624488
 H       -10.7105597070       -0.9308223931       -2.5239922655
 H       -17.4788323678        0.7087177808        2.4699011498
 H       -16.8607151820        0.6210308151        4.0725860847
 H       -16.2001496487       -0.4709658561        2.8250838429
 H       -16.9747064524        3.3200745058        2.4452956946
 H       -15.4375459640        3.8907104184        3.0901087658
 H       -16.6463812693        3.0516559296        4.0990528719
 Na       -7.5735916767        4.8972490450       -2.2847124633
