117

 C       -13.8845268566        2.3226042058        4.9811611547
 C       -13.8062785692        2.0497943468        3.4846285398
 O       -12.7681632083        2.1884285016        2.8694798867
 C       -15.2367476694        1.7171220246        2.7932469864
 C       -15.0972798614        1.5103215859        1.1732377119
 O       -15.7459118358        2.1946586570        0.4225980586
 C       -14.2405200039        0.2331670446        0.5943489127
 C       -13.9696068108        0.5734285323       -0.8558112527
 C       -12.8401708343       -0.2652319841       -1.4625130247
 O       -11.9090127952        0.2970288086       -1.9641521550
 C       -12.8390116266       -1.8142117754       -1.3381659188
 C       -12.1715009047       -2.0536153263        0.0859525954
 O       -12.6732915638       -2.7127012198        0.9693140473
 C       -10.7816957205       -1.4278688593        0.3030448584
 C       -10.6104348904       -0.8866637896        1.7040791586
 C        -9.1743463964       -0.6489163352        2.1456113025
 O        -8.2496025114       -1.3520911985        1.8135153153
 C        -8.9408891582        0.5110777494        3.1742063483
 C        -9.0346182255        1.8573400819        2.4365670162
 O        -9.8815608857        2.0707961419        1.6087512310
 C        -8.0426594272        3.0331147014        2.6840875101
 C        -8.6694160464        4.2567727159        1.9559008792
 C        -8.9221257268        4.0656117289        0.4702637098
 O        -7.9656738083        3.6890395244       -0.1791156300
 C       -10.3067416940        4.4887971645       -0.2309640075
 C        -9.9704208634        5.9617182374       -0.6848195691
 O        -9.3866607644        6.1393853717       -1.7569548275
 C       -10.5872622591        7.2140298408       -0.0157034319
 C        -9.9740711522        8.4932670747       -0.5715553055
 C        -8.5802830570        8.7107945639       -0.0711824817
 O        -8.0491975572        8.0160934891        0.7865139761
 C        -7.7255061540        9.8608824155       -0.5802858827
 C        -6.5486454220        9.1857262980       -1.4620954015
 O        -6.6440615703        9.1714000059       -2.6522180061
 C        -5.2955773392        8.6946762119       -0.8119591993
 C        -4.4974832596        7.9123785349       -1.8295839903
 C        -5.2436192984        6.6744654437       -2.2657850359
 O        -6.1796111429        6.2853280497       -1.5699320411
 C        -4.7466824830        5.9183137206       -3.5951185403
 C        -5.8629127085        5.6461452930       -4.6066939861
 O        -6.5585774486        4.6616710541       -4.4486907000
 C        -6.3472390167        6.4978558447       -5.7645451741
 C        -3.6945778706        6.6876211656       -4.4458636646
 C        -4.1167830181        4.5717943792       -3.0570172351
 C        -8.5372958148       10.8792932545       -1.5084410976
 C        -7.2162135865       10.6606769301        0.6473831253
 C       -10.6655228837        3.5487429398       -1.4064506332
 C       -11.4348437716        4.5494969082        0.8662122042
 C        -9.9334149180        0.5308643324        4.3418005366
 C        -7.4854016502        0.3215016792        3.7370902034
 C       -14.2233523838       -2.5151238723       -1.3144746956
 C       -11.9772385801       -2.5482496017       -2.3451574010
 C       -15.8293374589        0.4433770883        3.3989763862
 C       -16.1236625985        2.9993486028        2.9543175440
 H       -13.2644879323        1.5103417463        5.4441192818
 H       -14.7915995370        2.2852810472        5.5999881609
 H       -13.4296660728        3.2570599331        5.3115357795
 H       -14.6685255426       -0.7866224026        0.7405056216
 H       -13.3676894276        0.1348393516        1.2623312275
 H       -13.7212888207        1.6036934691       -0.9696262104
 H       -14.9796636833        0.3881735205       -1.3602823833
 H       -10.6073311039       -0.6972983916       -0.4287689609
 H       -10.0169722007       -2.2562092958        0.3036053884
 H       -11.1798815729       -1.6008636726        2.3170798473
 H       -11.2131830209        0.0496391141        1.8073831895
 H        -7.1010694671        2.7419855839        2.3517297107
 H        -7.8414779545        3.3454557195        3.6864294048
 H        -7.9569708724        5.0964939518        2.1319740736
 H        -9.5786104354        4.5309460267        2.5466624235
 H       -10.3872598195        7.1595028810        1.0201606514
 H       -11.6840172197        7.2085560514       -0.1958559440
 H       -10.6061354719        9.3670183484       -0.2313071872
 H        -9.9703536143        8.4822429168       -1.6093778512
 H        -5.5009825902        8.1787720320        0.2143624902
 H        -4.8259166326        9.5663235249       -0.4413803759
 H        -3.4683318473        7.6169322778       -1.4115126099
 H        -4.2290884354        8.5175206499       -2.7170522659
 H        -6.3042349670        5.9064818510       -6.7060415604
 H        -5.7875482707        7.3850962357       -5.9268168124
 H        -7.4804288273        6.7114198693       -5.7603310502
 H        -4.0729098303        7.5466943871       -4.9986657957
 H        -3.2683759249        6.0084521317       -5.2619561614
 H        -2.8173157361        6.8931516152       -3.8668410348
 H        -4.6299342080        4.1033044605       -2.2926952066
 H        -3.0090606106        4.7005127400       -2.7717484324
 H        -4.0857811644        3.9012784795       -3.8761644415
 H        -9.4427411875       11.2990475076       -1.0513327727
 H        -8.9437208731       10.3323511702       -2.3576175148
 H        -7.8537513709       11.6850970834       -1.8040716145
 H        -6.6712181099       11.5627198156        0.3678484379
 H        -6.6289257098       10.0291742126        1.3504522367
 H        -8.0784863243       11.0272665228        1.1560629339
 H       -11.3269074827        4.0172087396       -2.1301680329
 H       -11.0556517391        2.5717907858       -1.1119774153
 H        -9.7354670251        3.2894695823       -1.9079007946
 H       -12.3849841902        4.8232950220        0.4502983557
 H       -11.1493615467        5.2555247293        1.6497502458
 H       -11.6082232910        3.5232906169        1.3446563784
 H       -10.9914654491        0.7816979825        3.9976689781
 H        -9.7264845595        1.3211787650        5.0262573787
 H        -9.8654799968       -0.4598041612        4.8550631339
 H        -7.5942347148       -0.4620894036        4.4916382115
 H        -7.0981666821        1.1577227177        4.2384340209
 H        -6.7787919603       -0.0448032367        2.9653103559
 H       -14.1050930648       -3.4596232709       -0.8177461853
 H       -14.5948728840       -2.6113534743       -2.3615901627
 H       -14.9823110832       -1.8952042278       -0.8635225374
 H       -12.5302070804       -2.7438124552       -3.2595368038
 H       -11.6718408617       -3.5286926493       -1.9063456342
 H       -11.1734110905       -1.9042473243       -2.7211440084
 H       -16.8523925255        0.1854161447        3.1068957494
 H       -15.9685832891        0.6207585056        4.5245486174
 H       -15.1327678995       -0.3646894766        3.2754930147
 H       -17.1120492318        2.7542715315        2.7746032566
 H       -15.7910536579        3.7448120897        2.2246766022
 H       -16.0717115176        3.3863348623        3.9909691831
 Na       -7.6406559373        4.5123756996       -2.3376064848
