117

 C       -13.9925657150        2.3037124819        4.9567496637
 C       -13.8324894569        2.0987375303        3.4857162920
 O       -12.7323146015        2.0919186633        2.9819178408
 C       -15.1610623104        1.7640886148        2.7336468615
 C       -15.1383053571        1.4918802645        1.2519371608
 O       -15.8170570405        2.1225160517        0.4312623814
 C       -14.2632344249        0.3842127656        0.6900754982
 C       -13.8902110182        0.5646439907       -0.7647568117
 C       -12.7877954228       -0.2768553442       -1.4190454278
 O       -11.8149897932        0.2659259990       -1.9019355553
 C       -12.8183103376       -1.8983646732       -1.2490633147
 C       -12.1242582030       -2.1055973257        0.1374609856
 O       -12.7147951864       -2.6147453378        1.0995191649
 C       -10.7277184099       -1.4817982976        0.2528918949
 C       -10.6504652062       -0.7438236041        1.6251995131
 C        -9.2441407413       -0.6188797671        2.1690491521
 O        -8.3759853539       -1.4635060116        1.8514630800
 C        -8.8442109228        0.5533062897        3.1629320189
 C        -9.0738608587        1.8948573133        2.4052005993
 O        -9.9962694801        2.0621580190        1.6454242253
 C        -8.1616154451        3.1342961371        2.7641841528
 C        -8.7019121094        4.3557209074        2.0589569280
 C        -8.9023777473        4.0953496824        0.5411560972
 O        -7.9780531435        3.7061731208       -0.2040961881
 C       -10.2120562304        4.5731784251       -0.1935034131
 C        -9.9919852647        5.9651945667       -0.8511686517
 O        -9.3273339618        6.0160995521       -1.8706064017
 C       -10.5029787038        7.1985518610       -0.0656444869
 C        -9.9211007049        8.4804819453       -0.6786841023
 C        -8.5001865069        8.7048136161       -0.1124782728
 O        -8.0869095309        7.9127398373        0.7263968015
 C        -7.6514358959        9.9704345628       -0.6449341804
 C        -6.4441984347        9.3826107734       -1.5096624660
 O        -6.6549213943        9.1476395393       -2.7054854606
 C        -5.2062082291        8.6686208291       -0.7852066116
 C        -4.4399269082        7.8026506791       -1.7282043742
 C        -5.2382848321        6.5961515000       -2.2531608748
 O        -6.2457022525        6.1880350553       -1.6767481112
 C        -4.7962809453        5.8083826549       -3.5562797140
 C        -6.0642660208        5.5301648876       -4.5092492055
 O        -6.7550910621        4.5255344448       -4.4059018872
 C        -6.2272717100        6.5732329473       -5.6180581373
 C        -3.6992983629        6.7272931535       -4.3570837047
 C        -4.0748908309        4.5251653243       -3.0815074824
 C        -8.5009013646       10.9376198250       -1.5378415612
 C        -7.2608653928       10.7699500141        0.5743149804
 C       -10.6532550081        3.6942545797       -1.3510972984
 C       -11.5957176784        4.5885509464        0.6443764144
 C        -9.8701898501        0.5446979253        4.3133329926
 C        -7.3709585511        0.3340727618        3.5669863410
 C       -14.3210481230       -2.3772276537       -1.2798565720
 C       -11.9244548760       -2.5549707715       -2.3592246341
 C       -15.6676405326        0.4439072497        3.3833311552
 C       -16.1057970852        2.9603503881        2.8619821863
 H       -13.3816709755        1.6862950062        5.7065891230
 H       -15.0066137026        2.3235455967        5.4110814276
 H       -13.7426550918        3.3141626305        5.1556310761
 H       -14.6779835677       -0.5993223041        0.9057909485
 H       -13.4080407998        0.3656285508        1.3719983733
 H       -13.6007738867        1.6297522672       -0.8848526995
 H       -14.7689257531        0.4270622006       -1.3513535454
 H       -10.6408828568       -0.7763868693       -0.5747183316
 H        -9.9740605043       -2.2741984903        0.2103784783
 H       -11.2798467657       -1.4146583821        2.2644795225
 H       -11.2461902119        0.1695003832        1.5888288653
 H        -7.1674770211        2.9906840771        2.5274153459
 H        -8.0884170224        3.2619667988        3.8318230100
 H        -7.9200583122        5.1823149769        2.1513090421
 H        -9.6060324452        4.7183604736        2.5008273141
 H       -10.2381706930        7.0767764676        0.9988368715
 H       -11.5942224163        7.2549094182       -0.1845154461
 H       -10.5827882665        9.2865019453       -0.3897408533
 H        -9.9275324157        8.3956691599       -1.7637486722
 H        -5.6336912286        8.1798374822        0.1188519368
 H        -4.5787974676        9.4014832920       -0.2973149343
 H        -3.5496814207        7.4501244253       -1.2586361537
 H        -4.0648687142        8.3815391302       -2.5481244576
 H        -6.2402566069        6.1966016521       -6.6226101341
 H        -5.5194578407        7.4264305510       -5.5840146302
 H        -7.2467763748        6.9698333231       -5.5552223374
 H        -3.9307010837        7.7623296312       -4.5136883425
 H        -3.4694507581        6.3319101898       -5.3121505745
 H        -2.7298384566        6.6822837515       -3.8142077071
 H        -4.6042211502        3.8145329764       -2.4595564308
 H        -3.1701143382        4.8280861349       -2.6278601559
 H        -3.7100557621        3.9731579968       -3.9977156070
 H        -9.2799059539       11.3258053778       -0.9589620926
 H        -9.0054423365       10.3331217375       -2.3061333487
 H        -7.9160785821       11.7275041254       -1.9222532137
 H        -6.6274545046       11.6332162950        0.2972229888
 H        -6.7208340144       10.1275576559        1.2304771181
 H        -8.0967035319       11.1860913040        1.0921365666
 H       -11.6597352422        3.9751932218       -1.5345064244
 H       -10.6102144975        2.6210886916       -1.1103057741
 H       -10.1450755443        3.7701065108       -2.2886732614
 H       -12.4239445773        4.8765015983       -0.0195208612
 H       -11.5690575353        5.2990806892        1.5172147370
 H       -11.8188527565        3.6175936531        1.0364250956
 H       -10.8577335801        0.8060599422        3.9479067560
 H        -9.6807362836        1.3950745784        5.0078500728
 H        -9.8395525761       -0.4292491627        4.8612822850
 H        -7.4210166079       -0.6121240748        4.1399056547
 H        -6.9468142134        1.0737969382        4.2627602520
 H        -6.7528918488        0.1455538145        2.7008096496
 H       -14.4216116128       -3.3869928234       -0.9128225641
 H       -14.7007611177       -2.2465596590       -2.3014174144
 H       -14.8824801105       -1.7074472451       -0.7104562908
 H       -12.5697638207       -2.9468550075       -3.2050714786
 H       -11.4994400666       -3.4736270004       -1.9240953555
 H       -11.2040894369       -1.8670405297       -2.8612561718
 H       -16.7039289515        0.2234822069        3.1783129269
 H       -15.6635189398        0.5244543804        4.4863505947
 H       -15.0304927619       -0.3764752873        3.1192954175
 H       -17.0531947205        2.6943678219        2.4686428070
 H       -15.6710988940        3.7895079217        2.3807730555
 H       -16.2259703982        3.1667267246        3.9151812485
 Na       -7.6504704275        4.3715448116       -2.3340958296
