117

 C       -13.8882969638        1.6468894625        4.9504305103
 C       -13.8850239694        1.8579747851        3.4566243112
 O       -12.8972559953        2.3537697807        2.9359643762
 C       -15.1592219503        1.6199884068        2.6819316960
 C       -15.0270437637        1.6406531591        1.0358701835
 O       -15.5785412263        2.4650111347        0.3895823124
 C       -14.1759340991        0.4609204307        0.4833308582
 C       -14.5797874297       -0.0497003070       -0.8528575470
 C       -13.2840823294       -0.3975261576       -1.5602966523
 O       -12.6288263056        0.4970200290       -2.0572745709
 C       -12.7161878109       -1.8722151367       -1.5132992264
 C       -12.2151634388       -1.9526768383        0.0791528936
 O       -12.9283613768       -2.4671678196        0.8879477970
 C       -10.8748489402       -1.3351465540        0.3802714536
 C       -10.3780422922       -1.6638176963        1.8211722200
 C        -9.0104599734       -1.0146095879        2.1079561015
 O        -7.9863295849       -1.4017131289        1.6738090892
 C        -9.0230555054        0.2688664959        3.0414621809
 C        -8.7621697247        1.5731196555        2.2083057250
 O        -9.4392049654        1.8524427329        1.2643809702
 C        -7.6665642304        2.6137636827        2.5930938869
 C        -8.0603947887        4.0155402140        2.0945429550
 C        -8.5553607256        4.0395040631        0.6736221423
 O        -7.8230820031        3.6827726194       -0.2589179067
 C       -10.0445832558        4.4770829890        0.2572821819
 C        -9.9175109593        5.9488042639       -0.3281702847
 O        -9.2906706208        6.2163169622       -1.3185948592
 C       -10.7097026249        7.0522296761        0.4264404753
 C       -10.1810090042        8.4365920455       -0.0329416830
 C        -8.6976386500        8.6022584006        0.2738793355
 O        -8.1211101141        7.7354173476        0.9067174243
 C        -7.9144030813        9.9029302150       -0.2919586872
 C        -7.0976888180        9.2862843672       -1.4812363877
 O        -7.5979841057        8.9392740209       -2.4897337677
 C        -5.5628104588        9.1161516807       -1.1278084039
 C        -4.8481204441        8.5224602075       -2.3488996061
 C        -5.2121492515        7.0121020037       -2.5230748424
 O        -5.8362387553        6.4125995995       -1.6553245862
 C        -4.5684780125        6.2717833032       -3.8013369415
 C        -5.7615088136        6.0394116617       -4.8606354650
 O        -6.6966229093        5.3661775521       -4.5122747265
 C        -5.7431133124        6.4158776233       -6.3082260316
 C        -3.3830869841        7.0698120024       -4.3769687427
 C        -4.2522414765        4.8968503295       -3.3229533018
 C        -8.8194797737       11.0524022365       -0.8477158547
 C        -7.1172803972       10.5073878887        0.9234241748
 C       -10.5373718719        3.5065541633       -0.8967744134
 C       -11.0237505345        4.4420609235        1.3881451977
 C       -10.4133319869        0.5832984640        3.6286343532
 C        -7.9924235645        0.1214986670        4.1633743652
 C       -13.6995881621       -2.9986226390       -1.7442888759
 C       -11.5596115757       -1.9828776514       -2.5382643230
 C       -15.9573587615        0.3472745207        3.0636723382
 C       -15.9823885978        2.9706207647        2.9191192518
 H       -14.3246934885        0.7156535654        5.2906018444
 H       -14.5225116633        2.3523632366        5.3958860821
 H       -12.8964279057        1.6267577897        5.3601907694
 H       -14.1205842652       -0.3786450127        1.1901137605
 H       -13.1445992076        0.8228676354        0.4398837767
 H       -15.0336728259        0.7396406786       -1.4566135944
 H       -15.3310610482       -0.8514200606       -0.7611483909
 H       -10.9294798261       -0.2848350640        0.0669062903
 H       -10.0427158406       -1.7077589943       -0.2767619859
 H       -10.2826099663       -2.7438012497        1.7109972157
 H       -11.1021292521       -1.4675229256        2.5827313040
 H        -6.6698402850        2.3256713709        2.1849817863
 H        -7.6758627070        2.6503091260        3.7429661955
 H        -7.2320545124        4.7312450031        2.1332062577
 H        -8.8311225283        4.3694867868        2.7424394892
 H       -10.4095794676        6.9092201599        1.4757914911
 H       -11.8113443613        6.8923275720        0.4212080932
 H       -10.6715048387        9.2386703396        0.6013019393
 H       -10.4130670598        8.6964621293       -1.0586046152
 H        -5.5047749158        8.3352005897       -0.2737396909
 H        -5.0851078971        9.9852155228       -0.8252372758
 H        -3.7731406102        8.6871281682       -2.2877130232
 H        -5.1628452371        9.0209519022       -3.2460703655
 H        -4.8700148807        6.0161673152       -6.8389623167
 H        -5.7760890280        7.4530798896       -6.5640238857
 H        -6.6481174740        5.9668634897       -6.8583595886
 H        -3.6766687353        7.9776960922       -4.9576674079
 H        -3.0258010886        6.3628493542       -5.2211181997
 H        -2.5784531505        7.3692670876       -3.7144264471
 H        -4.9470493211        4.5237716291       -2.6322082709
 H        -3.2506864103        4.9684197273       -2.7295596961
 H        -4.1529057776        4.2050744962       -4.1462057564
 H        -9.6452858977       11.2133345384       -0.1081104684
 H        -9.3238167627       10.7179606043       -1.7905817796
 H        -8.3790621790       12.0430416944       -1.1295986918
 H        -6.4850244210       11.3342988781        0.5590234857
 H        -6.4147348454        9.7972223179        1.4111442718
 H        -7.8601055562       10.7831874719        1.6335251484
 H       -11.3488059561        2.8744702114       -0.4976722057
 H        -9.6684099395        2.9065851202       -1.2497176101
 H       -10.9706710634        4.0421105805       -1.7581099845
 H       -12.0106636042        4.5684590003        1.0572888302
 H       -10.8627665934        5.1235548156        2.2137977219
 H       -10.9398493549        3.3831865715        1.7736272593
 H       -11.1614055246        0.7211760620        2.8424363126
 H       -10.3279556179        1.4087174776        4.2664869767
 H       -10.8327962369       -0.1836624019        4.2656675920
 H        -8.4239896462       -0.5609767102        4.8940600384
 H        -7.8139950849        1.0404588868        4.6338038143
 H        -7.0291273922       -0.2806711526        3.8390195229
 H       -13.3065654258       -4.0153437324       -1.6789422642
 H       -14.1628074823       -2.9534647297       -2.7814180090
 H       -14.4664189201       -2.9653292349       -0.9722874142
 H       -11.9352638004       -2.5646876798       -3.3527561894
 H       -10.6763498704       -2.5271079010       -2.2047297196
 H       -11.0686116063       -1.1082695358       -2.8845014615
 H       -16.6839218689        0.1229009681        2.2937547633
 H       -16.3865627265        0.4574794279        4.1117825434
 H       -15.3134143221       -0.4917308271        3.1297471406
 H       -16.9071330223        3.0469849556        2.3556090402
 H       -15.3387598706        3.8001945972        2.4898215799
 H       -16.1780161603        3.2587740146        4.0086988405
 Na       -7.6884037195        4.7162209493       -2.3183229218
