117

 C       -13.7391424965        2.2749281931        4.9527356536
 C       -13.8600378182        2.0420991027        3.4526154786
 O       -12.8899783913        2.2135861527        2.7049021851
 C       -15.2384568230        1.7069218147        2.8117718884
 C       -15.0602351294        1.4666453847        1.2004302613
 O       -15.5941766268        2.2224804160        0.4609594867
 C       -14.2804412756        0.3569075005        0.6191578103
 C       -14.1311650666        0.5496706739       -0.9883864122
 C       -12.9183535415       -0.3043982429       -1.5537840654
 O       -11.9790922208        0.3037513231       -2.0931618336
 C       -12.8401079881       -1.8020415388       -1.3546271715
 C       -12.1603720667       -2.0452651963        0.0611226653
 O       -12.6882060340       -2.7846161914        0.8298106864
 C       -10.7269354420       -1.4765287871        0.3672560109
 C       -10.5636557921       -1.0202241603        1.8426147408
 C        -9.1165361144       -0.6679011651        2.1878475688
 O        -8.2191088375       -1.2606977844        1.6907916977
 C        -8.9293814701        0.4913932241        3.2705589729
 C        -8.9569296387        1.8479173403        2.3481165722
 O        -9.8530447451        1.9397784613        1.4984701638
 C        -7.9817772398        2.9788306131        2.5353875588
 C        -8.5787350839        4.2911247021        1.9739390371
 C        -8.8879635913        4.0028652876        0.4894235887
 O        -8.0307588016        3.6676184415       -0.2790309588
 C       -10.2815429282        4.4984016014       -0.1065952466
 C       -10.0790899701        5.9308336626       -0.7033640964
 O        -9.3229232668        6.1430463628       -1.6383945236
 C       -10.7152271955        7.1406956686       -0.0018828247
 C       -10.0667770414        8.4785006443       -0.4177258671
 C        -8.6095280994        8.6714794923        0.0444297559
 O        -8.0879661870        7.9919803355        0.8786872522
 C        -7.7341634056        9.8812656331       -0.5774278975
 C        -6.6557590980        9.2771512933       -1.4489834276
 O        -6.7751374052        9.1789040978       -2.6453663679
 C        -5.3341317313        8.7578964954       -0.7514698019
 C        -4.5096496556        8.0607898260       -1.8574721865
 C        -5.2133299070        6.8003332042       -2.3943353342
 O        -6.0377251264        6.2499433396       -1.7169734485
 C        -4.6666156113        6.0682261554       -3.7084690806
 C        -5.9501570860        5.6585250047       -4.5891350013
 O        -6.5155998372        4.6068763922       -4.3365027542
 C        -6.3878763142        6.4742455344       -5.8630751099
 C        -3.5363815364        6.7211715858       -4.3847975793
 C        -4.2279915758        4.6850772963       -3.1246569289
 C        -8.5435654127       10.7965668147       -1.5189596499
 C        -7.0732024974       10.5790294858        0.6535304089
 C       -10.5930412753        3.5193483613       -1.2892563981
 C       -11.3306421636        4.4595583996        1.0083224726
 C       -10.0137774184        0.5183176341        4.3418029171
 C        -7.5280447979        0.3201186848        4.0080663884
 C       -14.2203205981       -2.6272329187       -1.3345777216
 C       -11.9362040706       -2.4715417411       -2.3935232757
 C       -15.9514473824        0.5299816688        3.4134961876
 C       -16.1409445284        2.9515930555        3.0585350517
 H       -13.2330732895        1.4489712106        5.3316181898
 H       -14.6049528136        2.2800533521        5.5828300309
 H       -13.1548486223        3.1887710069        5.3034874353
 H       -14.7419090185       -0.6117724023        0.8896603347
 H       -13.3586805771        0.2168881099        1.2295285330
 H       -13.9004222119        1.5864265645       -1.2387427634
 H       -15.1607515360        0.3009994754       -1.3802189052
 H       -10.5451550945       -0.5923813009       -0.2581568142
 H        -9.9315463687       -2.2249484828        0.2637400474
 H       -11.0836944980       -1.7028526525        2.4958325951
 H       -11.1481755330       -0.0904644745        1.9261543845
 H        -7.0298400233        2.5720513662        1.9877021153
 H        -7.6027896721        3.1240660568        3.5420540715
 H        -7.8796447904        5.0871849492        2.1103475424
 H        -9.4649138949        4.5595343097        2.6057171698
 H       -10.4067552147        6.9324397692        1.0173900013
 H       -11.7926178065        7.1728427844       -0.0639537093
 H       -10.6723986356        9.3345699291       -0.0984157827
 H       -10.0205783449        8.5036859410       -1.5242220943
 H        -5.5605136594        8.0892018101        0.0518388314
 H        -4.8562097693        9.5768295273       -0.1534589120
 H        -3.4618673878        7.7226524634       -1.5216847022
 H        -4.2500250539        8.7406709347       -2.7370897957
 H        -6.1116220769        5.8962205093       -6.8087549772
 H        -5.7611638925        7.3801257107       -5.9024590131
 H        -7.4288637502        6.6725030377       -6.1032423433
 H        -3.9408519369        7.5641277297       -5.0266899948
 H        -2.9964412246        6.0802986383       -5.1221253644
 H        -2.7350312297        6.9828341952       -3.6863395619
 H        -4.9489360384        4.4776451201       -2.3069884876
 H        -3.2160812440        4.6106102428       -2.7441711954
 H        -4.3416050121        3.9081653304       -3.8274286660
 H        -9.5603545553       11.1436475575       -1.1050544693
 H        -8.8299903414       10.2808582064       -2.4311629386
 H        -7.8735054991       11.6872424188       -1.6848490919
 H        -6.4143819937       11.4063121758        0.4699224539
 H        -6.5792719106        9.7730210234        1.2332933652
 H        -7.9158282922       10.9699011659        1.2785847711
 H       -10.7359297344        4.0407369489       -2.2646366013
 H       -11.4103627671        2.8352266665       -1.1523413586
 H        -9.6916560524        2.8777854453       -1.3865776625
 H       -12.3105994645        4.6192936968        0.5324936370
 H       -11.1614458430        5.1585090014        1.7950387717
 H       -11.4449931248        3.4407386350        1.4047859915
 H       -10.9878591045        0.7794038375        3.8888338498
 H        -9.8736681726        1.2361910489        5.1555628511
 H       -10.0444234521       -0.4769953808        4.7599904306
 H        -7.5679094727       -0.4447052752        4.7478922278
 H        -7.2592151922        1.2432195106        4.5119363312
 H        -6.7428272689        0.1170016033        3.2872742952
 H       -13.9869420073       -3.5897842515       -0.8570045282
 H       -14.5098475314       -2.7480521552       -2.3650542709
 H       -15.1301382458       -2.0945983407       -0.9029641446
 H       -12.2492308147       -2.2309802180       -3.3759780900
 H       -11.7620657870       -3.5191538357       -2.2377708141
 H       -11.0447762006       -1.8495654373       -2.4117352830
 H       -16.8951272613        0.3746607606        2.8482676245
 H       -16.3632313629        0.7431155651        4.3818200125
 H       -15.3420070987       -0.4238631463        3.4529605881
 H       -17.2465628806        2.6051437103        2.9661907025
 H       -15.9722424969        3.7672257967        2.3161243776
 H       -16.0315863635        3.2605047959        4.0856242285
 Na       -7.6305133771        4.7037688067       -2.3161766728
