117

 C       -13.4772353850        2.3701960209        0.3644775256
 C       -12.7748887792        1.7120521676       -0.9075512239
 O       -12.2087650291        2.3591997136       -1.7716208757
 C       -12.3943029709        0.1892785163       -0.9649246207
 C       -10.8654742658        0.1093815109       -0.3892744794
 O       -10.0483046412        0.9128677859       -0.8578093089
 C       -10.4724264896       -0.8734004575        0.7224625828
 C        -9.0541536602       -0.7327148576        1.4395079807
 C        -7.9447258703       -0.7202583464        0.2193817714
 O        -8.2465067818       -1.4231351904       -0.7442563806
 C        -6.6421106626        0.0165668629        0.3699384461
 C        -6.4005991026        1.2152066995       -0.7874049032
 O        -5.7040719922        2.0794855098       -0.3974361658
 C        -6.9057119487        1.0136751110       -2.2950517927
 C        -6.3923459040        2.0934584329       -3.1925227405
 C        -7.3746187599        2.3283411498       -4.4003565053
 O        -8.5316148633        2.0643470996       -4.2108847714
 C        -6.8784173820        3.2902350018       -5.6362723467
 C        -7.6664489258        4.6394722046       -5.4680386778
 O        -7.4688171889        5.3151617779       -4.5019435501
 C        -8.9272766336        5.0052282255       -6.3918352109
 C        -9.8867226068        5.8985075578       -5.5331737933
 C       -10.4764936860        5.2504798189       -4.3558036027
 O       -10.7111237853        3.9908468935       -4.4806807660
 C       -11.1289381579        5.9561278050       -3.2232661769
 C       -10.1234745463        5.6551773683       -1.8340574897
 O        -9.6651253178        4.5467224639       -1.6798702879
 C        -9.8833294411        6.8753787273       -0.8430628981
 C        -8.5935327354        6.8230477202        0.0127207498
 C        -8.6247132654        7.4215105687        1.4227949394
 O        -8.8505761982        8.5938479253        1.6029114427
 C        -8.3795743224        6.5413428700        2.6430893349
 C        -9.5701994745        5.6767898741        3.1746444298
 O        -9.5240039353        4.4703922351        3.0585473690
 C       -10.9366137482        6.2857129714        3.8838874356
 C       -11.9005832877        5.1320062068        4.1388590714
 C       -12.0038925365        4.7043811435        5.6170284798
 O       -10.9632523328        4.5429305521        6.2058376193
 C       -13.4063010422        4.6006947725        6.2898231607
 C       -14.5870853378        4.2994074528        5.2969872332
 O       -15.4501743784        4.9682463367        4.7547698065
 C       -14.3219414901        2.8559495434        4.6914244057
 C       -13.2926889782        3.5580579039        7.4402247724
 C       -13.7502955312        6.0628056114        6.9543535923
 C        -7.2477494895        5.5659690507        2.3109146569
 C        -8.0522285469        7.4857323619        3.8317518457
 C       -11.3596854322        7.4628203388       -3.5810373659
 C       -12.4684204440        5.2925329950       -2.6867852559
 C        -5.4558553424        3.4774589534       -5.6387911419
 C        -7.4098368729        2.5204591884       -6.9373990591
 C        -6.4664156057        0.7153358895        1.7264081256
 C        -5.5401858047       -0.8827931457       -0.1046641597
 C       -13.4268418221       -0.6697849349       -0.1797712605
 C       -12.4703117637       -0.1987531322       -2.3944329736
 H       -14.0916241496        3.1915658430        0.0471435962
 H       -12.6710730983        2.5551897677        1.0554394168
 H       -14.1032969969        1.6163601733        0.8737457692
 H       -10.3516968297       -1.9539268800        0.3853358689
 H       -11.1818604219       -1.0294091813        1.4646946701
 H        -8.9068351235       -1.6189698651        2.1729362594
 H        -9.1238945478        0.2150438282        1.8957262945
 H        -7.9617764496        0.9584646890       -2.2855817116
 H        -6.5161656520        0.0886925093       -2.3741321866
 H        -5.2817295424        2.0575216878       -3.3742995588
 H        -6.5657752892        2.9550506444       -2.5461965170
 H        -9.3935247621        3.9974865101       -6.5008078892
 H        -8.8196484662        5.3731857082       -7.4220707235
 H       -10.7585657037        6.1672842306       -6.1811050290
 H        -9.5811929016        6.9866525264       -5.0907049108
 H       -10.7535025690        7.0229533076       -0.1817580623
 H        -9.7218036601        7.7217398638       -1.4737747842
 H        -7.9054161835        7.4868612451       -0.4808931561
 H        -8.2252815922        5.8038585723       -0.0791253307
 H       -11.4793693063        6.9600724241        3.2813896427
 H       -10.5630973351        6.8606878885        4.7402570378
 H       -11.6994246948        4.2877666296        3.4374906513
 H       -12.8863238842        5.5438069424        4.0229613103
 H       -13.3273194809        2.9784881315        4.1224603290
 H       -15.2543387634        2.6377108005        4.1199761712
 H       -14.2313665740        2.1456654074        5.4081309403
 H       -14.2412895052        3.5131113030        7.9090895925
 H       -12.5238438413        3.7483012125        8.1917883506
 H       -13.2438503123        2.5454763094        7.2334403513
 H       -14.6188927063        6.0856897836        7.6594299835
 H       -13.8874532500        6.6958633124        6.0711326294
 H       -12.7816927424        6.2848116657        7.4861564712
 H        -6.8136750550        5.1804903610        3.2195956617
 H        -6.4702414060        6.0874119662        1.7821596235
 H        -7.6411123166        4.7253542699        1.7898586018
 H        -8.0827883360        6.9655444798        4.7644231797
 H        -8.6969459308        8.3646285523        3.7078248452
 H        -7.0155010303        7.7334563517        3.6516882430
 H       -12.1610783029        7.8315943515       -2.9415521723
 H       -11.6807777480        7.5419599672       -4.6665774814
 H       -10.5023754523        8.1071142647       -3.5526106628
 H       -12.5695085871        5.4168081216       -1.6184404541
 H       -12.3837764487        4.2419998104       -2.9424642035
 H       -13.2668121654        5.6661395638       -3.2852211945
 H        -5.2502240437        4.1839302968       -4.7836425118
 H        -5.1347702409        3.9638681989       -6.5961970892
 H        -4.9643362291        2.5018770807       -5.3970384488
 H        -6.8458767274        1.6331233016       -7.3119638931
 H        -7.5050801548        3.2814278536       -7.7346897191
 H        -8.4360813016        2.1604381937       -6.7951330067
 H        -5.4444686570        0.9190430473        1.9527697669
 H        -6.8762537011        0.0134791894        2.5501279088
 H        -7.0636073364        1.6651553457        1.5947341336
 H        -5.5818859631       -1.8443860771        0.3778857314
 H        -4.5330751729       -0.4233175456        0.1380850370
 H        -5.7090911833       -1.0997438936       -1.1135842788
 H       -14.3838835096       -0.6189459653       -0.6308821707
 H       -13.4518517301       -0.3674901232        0.8970319961
 H       -13.2156672538       -1.7065258179       -0.2876245273
 H       -13.4137693736        0.1606280077       -2.7186046636
 H       -12.3220843092       -1.2464645263       -2.5557260074
 H       -11.6814303788        0.2952447869       -3.0386999048
 Na      -10.0482025443        2.6291848109       -2.7337014496
