117

 C       -13.6191620913        1.9935485600        4.7746506082
 C       -13.8889982369        2.0152745952        3.2882986670
 O       -12.9872308901        2.1668399828        2.5131085996
 C       -15.3418332274        1.7289646690        2.7438075811
 C       -15.1864534434        1.6457376021        1.2130363868
 O       -15.4965719559        2.5577328932        0.4606626348
 C       -14.2967392447        0.5180353866        0.6424314065
 C       -14.2374139301        0.3024636223       -0.8168955236
 C       -13.0194287790       -0.2874428135       -1.4895720578
 O       -12.3718598872        0.3552795084       -2.2612477416
 C       -12.6798283553       -1.8786671284       -1.3376095128
 C       -12.0854843503       -2.1489522445        0.1045471055
 O       -12.6806573463       -2.8568634636        0.9077957328
 C       -10.7300384464       -1.5272719647        0.3689683694
 C       -10.4989550519       -1.2574157091        1.8918306532
 C        -9.1336849088       -0.7196378905        2.2028637204
 O        -8.1333662151       -1.0502150128        1.6074366429
 C        -8.9784426968        0.4544074201        3.2759279430
 C        -8.9030705498        1.6419436575        2.3272616378
 O        -9.6519944059        1.6952726424        1.3907679548
 C        -7.7624375807        2.7498869975        2.4770055822
 C        -8.3082893573        4.0873807617        1.9593430728
 C        -8.7971272950        3.9321273740        0.5159629754
 O        -7.9133197365        3.7534362810       -0.3489469313
 C       -10.2532746438        4.4536580225        0.0174271399
 C       -10.0511320038        5.9331166467       -0.5194182292
 O        -9.3607225158        6.1638512312       -1.4883380091
 C       -10.7493573650        7.1518982976        0.1447741459
 C       -10.1702821256        8.4996224279       -0.3385198272
 C        -8.6919350705        8.6784415907        0.1877754842
 O        -8.1878171266        7.8697566496        0.9610644326
 C        -7.8052032187        9.7825561046       -0.4488982586
 C        -6.7405844321        9.1219227190       -1.4933966284
 O        -7.0254230302        9.1393453795       -2.6745649912
 C        -5.3384465233        8.7634309829       -0.9675381414
 C        -4.4896045949        8.1525661128       -2.0211024453
 C        -5.1220347445        6.8030183684       -2.4720208073
 O        -6.0957497449        6.4881001178       -1.7767279762
 C        -4.5843697814        6.0210711713       -3.6941372236
 C        -5.8717636637        5.7171665025       -4.6485282120
 O        -6.6849580193        4.9213608386       -4.2337788903
 C        -6.1298431908        6.5044106931       -5.9349480861
 C        -3.5421587651        6.8048775729       -4.5297037174
 C        -3.9142550300        4.6215919073       -3.2007954435
 C        -8.7481536611       10.8529886077       -1.1637620247
 C        -7.1499616217       10.6107595138        0.6879050226
 C       -10.6192031744        3.5071091497       -1.1281250735
 C       -11.3541548386        4.3923805513        1.0816043952
 C       -10.2185677722        0.6656140146        4.2284099505
 C        -7.6697599278        0.2970957199        4.1477525614
 C       -14.0636926629       -2.6349266522       -1.5031815489
 C       -11.7878782204       -2.2765390315       -2.4780563381
 C       -15.8890031090        0.4243944003        3.3939646252
 C       -16.1971776216        2.9448058318        3.0362058229
 H       -13.2071837531        1.0395049054        5.2183080318
 H       -14.5257538636        2.1065597979        5.3711481700
 H       -12.9477386697        2.7370507956        5.0505103502
 H       -14.3809907725       -0.3517318554        1.2675467894
 H       -13.2863886580        0.7749551027        0.8949315704
 H       -14.4239494308        1.2705748054       -1.2836393253
 H       -15.0159005344       -0.3535094987       -1.1386271585
 H       -10.6753733890       -0.5234550792       -0.0490012060
 H        -9.8866252809       -2.1280555222       -0.0288049617
 H       -10.5954376962       -2.1180640244        2.5806552290
 H       -11.2901650986       -0.5871112199        2.1860707137
 H        -6.9393751982        2.4641928354        1.8778255958
 H        -7.2978394539        2.8613957364        3.5144447375
 H        -7.4366943102        4.7720986695        1.8866359413
 H        -8.9963997462        4.5597805444        2.6137431543
 H       -10.6161790378        7.1167104941        1.2485384923
 H       -11.8318564705        7.0361922298       -0.1085445085
 H       -10.7651261084        9.2997765035        0.1498056805
 H       -10.2288892142        8.6430104099       -1.4146544421
 H        -5.4007392371        8.1535338957       -0.0139590089
 H        -4.9335489611        9.6682880902       -0.6031774206
 H        -3.5031351064        8.0226462805       -1.6985939851
 H        -4.4039138079        8.8164479556       -2.8154952467
 H        -5.6013347374        6.1634781861       -6.7799960228
 H        -5.9861715010        7.5545204949       -5.8368742679
 H        -7.1487547001        6.2366371907       -6.2859267601
 H        -4.0400409699        7.6631752006       -4.8443077568
 H        -3.2578003636        6.3600591518       -5.4743052758
 H        -2.5914112022        6.9671963392       -4.0434563813
 H        -4.6072923007        3.9228199444       -2.8136741545
 H        -3.2463777321        4.9346761592       -2.3207224119
 H        -3.2515099869        4.1527135205       -3.9671593401
 H        -9.5132370663       11.0601321589       -0.4549670814
 H        -9.3281836628       10.4922157215       -2.0488282884
 H        -8.2087399832       11.7752352048       -1.3514075352
 H        -6.3721696957       11.2068957557        0.1496400903
 H        -6.6712152686       10.0856252527        1.5113932157
 H        -7.8560327055       11.3261859430        1.0481734396
 H        -9.8559992543        3.4796453608       -1.8940540293
 H       -11.5064386139        3.9721818553       -1.6297040101
 H       -10.8988506177        2.5076070141       -0.8263408252
 H       -12.3075657234        4.6458230377        0.7150522946
 H       -11.0453471077        5.0453596525        1.8976165616
 H       -11.4911038265        3.3647511504        1.4326876099
 H       -11.0353930444        1.1114980977        3.6571284326
 H        -9.9331405474        1.3256460003        5.0322919504
 H       -10.6215141222       -0.2240081345        4.7270736667
 H        -7.6825128592       -0.7204697742        4.5894594500
 H        -7.6010402739        1.0475661423        4.9261763671
 H        -6.7573661148        0.4457666514        3.5549643239
 H       -13.9867172443       -3.7202527358       -1.4851158680
 H       -14.6055718433       -2.2373820245       -2.3894758170
 H       -14.6726321463       -2.3487889541       -0.6938353662
 H       -11.9430010444       -1.6169809166       -3.3245430714
 H       -11.8311256936       -3.3609660623       -2.6808745420
 H       -10.7327186919       -2.0740184410       -2.3430348031
 H       -16.8228295477        0.1831402068        2.9356101498
 H       -16.1579286767        0.6127584243        4.4587914933
 H       -15.2555215889       -0.3956076849        3.3242845564
 H       -17.0758583197        2.8353597895        2.5098209109
 H       -15.7121264523        3.8036296324        2.5452582518
 H       -16.4307830104        3.0875614727        4.1333077488
 Na       -7.6450622696        4.8812707614       -2.2204006213
