117

 C       -14.1956388227        3.0650605245        4.9763944069
 C       -14.0336905775        2.0494845917        3.8477967748
 O       -12.9471547478        1.5137281856        3.6455673968
 C       -15.2828262890        1.6050543828        2.8517824463
 C       -14.8954426405        1.8571514812        1.3393016714
 O       -15.6281602311        2.5141071291        0.6777277186
 C       -13.6297117865        1.2113840499        0.6674724817
 C       -13.8371431196        0.6912614826       -0.7200621294
 C       -12.6256946590       -0.2282177533       -1.0775673432
 O       -11.6228120579        0.3987019107       -1.4146044256
 C       -12.6653398533       -1.8200844791       -0.8410309903
 C       -12.4828875122       -1.9711214120        0.6712415913
 O       -13.4315394488       -1.9886735167        1.4092332960
 C       -11.1511688833       -1.9674023135        1.3393238614
 C       -10.5509928791       -0.5821878794        1.3766902304
 C        -9.1229015056       -0.6108992198        1.9747482961
 O        -8.4460611924       -1.5756469886        1.8579049324
 C        -8.7676752046        0.6433016088        2.8280256079
 C        -9.1873550742        1.9657436092        2.2028553865
 O        -9.7330022442        2.0208177653        1.0943383353
 C        -8.7747439159        3.3094978026        2.8134310761
 C        -9.5710159342        4.4434099401        2.1353898289
 C        -9.4068627142        4.3916935184        0.5923160691
 O        -8.2683201200        4.2285526373        0.1703297852
 C       -10.5148285136        4.7544953962       -0.4621818730
 C        -9.9953112952        5.9724115063       -1.4020736248
 O        -9.0814259735        5.8318855575       -2.1652666437
 C       -10.6041337343        7.3700453279       -1.2720032670
 C        -9.6658718238        8.5625276068       -1.6255948969
 C        -8.5815309091        8.8670617238       -0.5399502129
 O        -8.7090194145        8.4266355421        0.5585479887
 C        -7.4103772815        9.8752803156       -1.0289888844
 C        -6.2458778586        8.9531048195       -1.6118168103
 O        -6.1689502409        8.7778230884       -2.7985285698
 C        -5.1798540833        8.1850936654       -0.7655827752
 C        -4.1306736929        7.3076803486       -1.5928116240
 C        -4.8901243653        6.0838289828       -2.1127368742
 O        -5.7645569543        5.6523733846       -1.3891192074
 C        -4.7971756551        5.3753381922       -3.4737713066
 C        -6.1728557693        5.7083358828       -4.3244580382
 O        -7.1018900352        4.9037713024       -4.1838556043
 C        -6.2253541975        6.8362099588       -5.2668285084
 C        -3.4935260692        5.9292402961       -4.2251732652
 C        -4.7417760236        3.7178991129       -3.3001387257
 C        -7.9936531338       10.8967144092       -2.0759531282
 C        -6.9899964319       10.7191652937        0.2056040683
 C       -10.7021239249        3.5031964501       -1.3733812087
 C       -11.8761896181        5.2157936801        0.2654412610
 C        -9.5383601339        0.4665941064        4.2759914055
 C        -7.1947103262        0.6663723181        3.0239535479
 C       -14.0607503442       -2.4346760582       -1.2437568364
 C       -11.4398784259       -2.3388952904       -1.6468815937
 C       -15.4244041155        0.1693872432        3.0560996883
 C       -16.5464344298        2.3749439375        3.1459714671
 H       -13.5630518316        3.8812090063        4.8398545485
 H       -14.1506010242        2.7833123787        5.9893872316
 H       -15.1820668194        3.6003799948        4.9226272022
 H       -13.3138770606        0.3325900326        1.2603753930
 H       -12.8194770656        1.9946157226        0.5861147327
 H       -13.9418091401        1.5198580542       -1.5104020917
 H       -14.7311928929        0.1180635088       -0.7329782697
 H       -10.3467725337       -2.5671945886        0.8475089961
 H       -11.1502678907       -2.3490017834        2.3139984004
 H       -11.1710262084        0.2013674632        1.8434055501
 H       -10.3650492919       -0.3662857160        0.3356246692
 H        -7.7039471444        3.3862923720        2.6446630401
 H        -8.9136520695        3.4428945143        3.8359519153
 H        -9.0830540297        5.4015708369        2.5275686795
 H       -10.5998720191        4.3748686729        2.4856947764
 H       -10.9511825185        7.4818710055       -0.2485642748
 H       -11.4873822749        7.4232458204       -1.8717517709
 H       -10.2730653230        9.4177268241       -1.8354249626
 H        -9.1050272667        8.3527659960       -2.5689511335
 H        -5.6957460366        7.5597566584       -0.0569362261
 H        -4.6174137303        9.0471977667       -0.2261548779
 H        -3.3859799923        6.9213280278       -0.8150195994
 H        -3.6260342696        7.9207659427       -2.4489394431
 H        -5.6517515268        6.6396219191       -6.1841044147
 H        -5.9128996538        7.8467159539       -4.8591534424
 H        -7.2534305612        6.8969537587       -5.5474816336
 H        -3.7074791566        6.8601013940       -4.8840519877
 H        -3.0535169646        5.1732189329       -4.8848069376
 H        -2.6293894920        6.1377043189       -3.4924107736
 H        -5.2776069536        3.3221682054       -2.3983042911
 H        -3.7581534045        3.3535445049       -3.2616243053
 H        -5.2943759471        3.3056295360       -4.1273837216
 H        -8.8699322375       11.3656402249       -1.5329995832
 H        -8.0336227623       10.4493320445       -3.0763250495
 H        -7.1885891024       11.6785967288       -2.1721925673
 H        -6.2525960591       11.5243450441        0.0775843460
 H        -6.5877080805       10.0622817659        0.9597667625
 H        -7.8830518066       11.1527509240        0.7066822305
 H       -10.9862480718        3.7720720637       -2.4064215115
 H       -11.4453849929        2.7735443088       -1.0411495103
 H        -9.7550193733        2.9723215413       -1.5371750005
 H       -12.6748661298        5.3922127394       -0.4770892811
 H       -11.7398922785        6.1106048604        0.8971755744
 H       -12.2126253453        4.4368449526        0.8566980727
 H       -10.5500031216        0.6743487010        4.1495174678
 H        -8.9451505021        1.0592557173        4.9982496118
 H        -9.4536933871       -0.5464466514        4.5763364966
 H        -6.9345069837       -0.3525320468        3.2863630158
 H        -6.8305635800        1.4041011725        3.8061987101
 H        -6.7135995984        0.9300221367        2.1002576656
 H       -13.9553271019       -3.5395310876       -1.1052519671
 H       -14.2315527717       -2.3231827194       -2.2848364706
 H       -14.7527304797       -2.0365761124       -0.4693737394
 H       -11.7105155604       -2.6041081802       -2.6742589454
 H       -10.9793281773       -3.0958150838       -1.0896452840
 H       -10.7034689381       -1.5425423517       -1.5735415324
 H       -16.1296552858       -0.2927066393        2.3430113412
 H       -15.8360175351        0.0292700293        4.0118797098
 H       -14.4950342244       -0.4748992363        2.9914250554
 H       -17.3070505182        2.1444685232        2.2752442759
 H       -16.2534854267        3.4341616704        3.0957939157
 H       -16.8368887490        2.0964704422        4.1502310724
 Na       -7.4942076350        4.2239573789       -2.0178947391
