117

 C       -14.1777463522        2.9147366870        4.9595582510
 C       -13.9736527867        2.0167274472        3.7145587935
 O       -12.8825936001        1.5332247694        3.5194886183
 C       -15.2192120850        1.7448241855        2.8000081022
 C       -14.9485687023        1.7543098054        1.2159345428
 O       -15.7934344029        2.2570995297        0.4767334356
 C       -13.6450762540        1.1728827976        0.7497912272
 C       -13.8638233855        0.6576570335       -0.7304813667
 C       -12.6658490358       -0.1952725588       -1.1277599665
 O       -11.6793390179        0.3197932795       -1.5823102840
 C       -12.7224012038       -1.8126364115       -0.9586417062
 C       -12.4676325030       -2.0665949683        0.5549015536
 O       -13.3851384549       -2.2463268621        1.3459231647
 C       -11.0389968325       -2.0637379452        1.0145780743
 C       -10.4248118492       -0.6156634782        1.2685279370
 C        -9.0616654673       -0.5892290357        1.9941851603
 O        -8.3309045460       -1.5882349430        2.0782866163
 C        -8.7169650193        0.7084725192        2.8821498582
 C        -9.1418123084        2.0697166303        2.1991353811
 O        -9.8973258694        2.0598024273        1.2554582346
 C        -8.7613917423        3.3853666164        2.9019424656
 C        -9.3485738915        4.5969053404        2.0548305930
 C        -9.1842449029        4.4348105113        0.5816320158
 O        -8.1347096636        4.0592747523        0.0809208693
 C       -10.4069545925        4.7099716118       -0.3263575968
 C       -10.0051285191        5.9642118908       -1.2199112334
 O        -9.1576089918        5.8747495705       -2.1238857379
 C       -10.6135963212        7.3284012145       -0.8650012165
 C        -9.6624622615        8.3811360966       -1.4774692577
 C        -8.5472737303        8.8340047648       -0.5452055761
 O        -8.5193282605        8.3978351031        0.6055095512
 C        -7.4221476532        9.8981365945       -0.9330684343
 C        -6.2522997091        9.1091986652       -1.5947152673
 O        -6.1395549373        9.1097421392       -2.8014404797
 C        -5.1985586505        8.3915925981       -0.7528456332
 C        -4.4189006071        7.4209087177       -1.6100272066
 C        -5.2187507347        6.2177493302       -2.0682952631
 O        -6.0615287619        5.7281943744       -1.3221904223
 C        -4.8391477855        5.5774718313       -3.4350426173
 C        -6.1709727989        5.6939410629       -4.3339696726
 O        -7.0038891631        4.8230253146       -4.1938708540
 C        -6.3480067379        6.7607514184       -5.4219959610
 C        -3.6343337750        6.1094623114       -4.2217089148
 C        -4.4996577334        4.0105199975       -3.1826347500
 C        -7.9380360718       10.8308644121       -2.0643355753
 C        -6.9505137843       10.5188753167        0.3531902701
 C       -10.6392682976        3.5444302264       -1.2857652445
 C       -11.7773682619        4.9090920735        0.3987653265
 C        -9.3742078578        0.6092806731        4.2495405074
 C        -7.1881244138        0.6000405374        3.1444415469
 C       -14.1856579182       -2.3875657157       -1.3242603821
 C       -11.7731322322       -2.4809711600       -1.9629368357
 C       -15.4945172638        0.2605964859        3.1130910554
 C       -16.4575859692        2.6199482513        3.1699682637
 H       -13.2223043406        3.1440356403        5.4660206056
 H       -14.8140774641        2.4182011496        5.7026769540
 H       -14.6891805925        3.8669001823        4.8957506611
 H       -13.3631103729        0.3375612969        1.3812704292
 H       -12.9022650311        1.9361823202        0.8258279645
 H       -13.8892244539        1.4288838911       -1.4291587131
 H       -14.8300552249        0.0988591318       -0.8127989543
 H       -10.4509736135       -2.5314735933        0.2468831309
 H       -10.7968273069       -2.6607120534        1.9395972930
 H       -11.1170073855        0.0224750486        1.8053479631
 H       -10.2265356215       -0.1615262515        0.2770702559
 H        -7.6311235381        3.4222933465        3.0309414093
 H        -9.1805228650        3.4530290503        3.9775812814
 H        -8.8700302431        5.4847310216        2.3222886092
 H       -10.4210355152        4.6718641247        2.2864092598
 H       -10.6191297440        7.3760446339        0.2432948903
 H       -11.6805529939        7.4299451006       -1.2093919270
 H       -10.2067149972        9.3438007763       -1.6965349488
 H        -9.2960627419        8.0008962348       -2.4325086179
 H        -5.6824394538        7.8763521807        0.1052605294
 H        -4.5774560829        9.1551830058       -0.3689158103
 H        -3.6244746218        7.0789956505       -0.9940530923
 H        -4.0666940021        7.8853919808       -2.4599711089
 H        -5.4660301793        6.7912169493       -6.0556281842
 H        -6.3885928785        7.7199749822       -5.0047378636
 H        -7.2619754824        6.6102203313       -6.0905903677
 H        -3.6252925448        7.1689087241       -4.3285269479
 H        -3.7155301443        5.6506840389       -5.2306373703
 H        -2.7008782312        5.8395802711       -3.8251486661
 H        -5.1515325420        3.5768308691       -2.4554492681
 H        -3.3932925964        3.8839241326       -2.8265266039
 H        -4.6734382980        3.4422905012       -4.0863469795
 H        -8.6434944009       11.4850275887       -1.6264508927
 H        -8.2809016990       10.1670309165       -2.8176090513
 H        -7.1788988857       11.3731975428       -2.5628464479
 H        -6.1278679263       11.1683695299        0.1758607663
 H        -6.6515177516        9.8226519942        1.1483415844
 H        -7.7402643028       11.0997373583        0.7680424208
 H       -11.5544671925        3.5789302853       -1.8492165477
 H       -10.5643981371        2.5695617459       -0.8370892611
 H        -9.9153124845        3.6189544234       -2.0868231043
 H       -12.4989697918        5.1790557078       -0.3526296052
 H       -11.8170606674        5.6962321141        1.1231349187
 H       -12.0827654608        3.9270306679        0.9007747907
 H       -10.4744848157        0.5663163601        3.9789300244
 H        -9.1181603140        1.4139446907        4.9026568157
 H        -9.1331932963       -0.3607546251        4.7054344773
 H        -6.9353041823       -0.3437960514        3.6473637814
 H        -6.8616840543        1.4084227471        3.7672894903
 H        -6.6641226921        0.6345336288        2.1481524117
 H       -14.2102626291       -3.4405819177       -1.2819663097
 H       -14.3470480581       -2.1376459916       -2.3714315479
 H       -14.8503757322       -1.9818750731       -0.5990950674
 H       -12.0776946157       -2.0509155016       -2.9099394248
 H       -11.8750195338       -3.6034245413       -2.0672332687
 H       -10.7557839768       -2.2653449014       -1.6441062494
 H       -16.4403003115       -0.0195125783        2.7138476282
 H       -15.4833972863        0.0905989161        4.2020765033
 H       -14.8346966128       -0.4171242374        2.6847883285
 H       -17.2002747428        2.1245215587        2.6769959686
 H       -16.4254246066        3.6893826873        2.9231307548
 H       -16.5544111275        2.4244200728        4.2580506555
 Na       -7.5125361478        4.1303431397       -2.0996533037
