117

 C       -14.9473367563        3.9634702449        4.5752438003
 C       -14.4529613621        2.5293012249        4.3188271961
 O       -13.4486640209        2.0679648452        4.7696481783
 C       -15.2577336559        1.7103894856        3.1692778978
 C       -14.5472202937        2.3215631911        1.9238866019
 O       -14.6914971245        3.5141635453        1.6572680175
 C       -13.5584019758        1.4869561798        1.0089578022
 C       -13.9774257662        0.2500648667        0.2558747624
 C       -12.8431092584       -0.1521955013       -0.7924605089
 O       -12.4344484158        0.6113939067       -1.6222366499
 C       -12.3851042017       -1.6616936157       -0.6816526662
 C       -12.4023837265       -2.3192589008        0.8482656162
 O       -13.3560404980       -2.9765505122        1.2178820992
 C       -11.1832990665       -2.1026778455        1.8197022047
 C       -10.8269642191       -0.6529624607        1.8568965097
 C        -9.4523660374       -0.4850686068        2.4680996137
 O        -8.7236243875       -1.3890599917        2.7458735460
 C        -9.0034595376        0.9993802519        2.8844059095
 C        -9.7180147211        2.1648003359        2.0771985401
 O       -10.1715964511        1.9565980869        0.9768356596
 C        -9.5664650936        3.5940225358        2.5711250686
 C       -10.3584354921        4.4884445488        1.6611780617
 C        -9.8098559732        4.6760831765        0.2877642415
 O        -8.6137626432        4.5772196525        0.0859101252
 C       -10.9161742273        5.0949830925       -0.9202412074
 C       -10.2690850012        6.3484142795       -1.5971533857
 O        -9.3067320662        6.1667335533       -2.3007192277
 C       -10.8478107106        7.8440298159       -1.3892286471
 C        -9.8034177363        8.9030970342       -1.7469045113
 C        -8.5420497887        8.8025065019       -0.9584518399
 O        -8.5264645361        8.0922544175        0.0428159483
 C        -7.1550482782        9.5156568062       -1.3529113990
 C        -6.3253136127        8.2359655958       -1.9468084900
 O        -6.7116675481        7.4929981277       -2.8343448403
 C        -4.8837768975        8.0404371924       -1.2837550213
 C        -3.9054360453        7.0557121158       -1.9292401769
 C        -4.5973781931        5.7396780268       -2.1719377293
 O        -5.2972356797        5.3165621793       -1.2950938116
 C        -4.2721848436        4.9238350625       -3.5163948723
 C        -5.5113088011        4.9948916476       -4.5043703991
 O        -6.6362632383        4.7376570028       -4.1082902824
 C        -5.2750682540        5.4158145655       -6.0203046590
 C        -2.9789807022        5.3589596622       -4.2010917398
 C        -4.0304508488        3.3396013539       -3.0154305828
 C        -7.3035775423       10.6694649183       -2.4070011978
 C        -6.5697888308       10.0447326697       -0.0225191337
 C       -10.8384174250        3.8391818776       -1.8680980784
 C       -12.3035359371        5.2867238292       -0.3654085800
 C        -9.3458257769        0.9961104224        4.3663940670
 C        -7.4506755166        1.1294354383        2.4854632409
 C       -13.4046559869       -2.4721067084       -1.5897892047
 C       -10.9162485981       -1.7523230930       -1.2278507781
 C       -15.1956026633        0.2283673788        3.3931493391
 C       -16.7281129001        2.1122119501        3.1293617191
 H       -14.3365665300        4.6553848467        5.2152775490
 H       -15.9856525932        3.9399982096        5.0361426395
 H       -15.0114498941        4.5442706016        3.6996420949
 H       -12.6827760001        1.2305965648        1.6495481689
 H       -13.0713326156        2.1139508127        0.2830730938
 H       -14.8493332842        0.5893712070       -0.3037838021
 H       -14.3254243742       -0.5672161062        0.9176441960
 H       -10.3335230673       -2.7486809882        1.4640083183
 H       -11.5148199299       -2.4108040648        2.7867544014
 H       -11.5688430268       -0.1897291748        2.5616182756
 H       -10.8588116125       -0.0291132718        0.9866341188
 H        -8.4709489248        3.9284595060        2.5382488667
 H        -9.9107527384        3.6442554219        3.6715510985
 H       -10.3854459427        5.4730983807        2.0410328918
 H       -11.4073262587        4.1894234530        1.5831333769
 H       -11.2514932478        7.9686880512       -0.3404763633
 H       -11.6549565431        7.9533282423       -2.1019129195
 H       -10.1533440398        9.8874524373       -1.5878276171
 H        -9.5988907454        8.7568478704       -2.8647307849
 H        -4.9897793386        7.7715723178       -0.2846808926
 H        -4.4118909870        9.0654165126       -1.2906118909
 H        -3.0739508624        6.9518913426       -1.2728839575
 H        -3.4153612650        7.4054288321       -2.7490695128
 H        -4.8567395132        4.4782838993       -6.4748519987
 H        -4.6989312830        6.3242100492       -6.0835311527
 H        -6.2950220665        5.5661915448       -6.4036472072
 H        -3.1466262488        6.2758638881       -4.6989331806
 H        -2.7311475012        4.5397523129       -4.9173002682
 H        -2.1876247918        5.6450745607       -3.5791855045
 H        -4.9093487566        3.0087246015       -2.5552582834
 H        -3.2132480232        3.3254895255       -2.2493523058
 H        -3.7005463081        2.6329680936       -3.8231681242
 H        -7.8600411877       11.4763614792       -1.9607556488
 H        -7.8110727518       10.2295618464       -3.2936300470
 H        -6.2692799877       10.8980310826       -2.6799873649
 H        -5.7934918708       10.7815096200       -0.1295756088
 H        -6.0849586653        9.2645652302        0.6152257708
 H        -7.3604784179       10.5129342597        0.6070346954
 H       -10.9136002527        4.0727297730       -2.9568634614
 H       -11.5363504944        3.0601016244       -1.5860519277
 H        -9.8259020695        3.3760710961       -1.7988400846
 H       -12.9010589853        5.5191476445       -1.2445455794
 H       -12.3845993882        6.1039000078        0.2942018419
 H       -12.7487990151        4.3571205386        0.1055484880
 H       -10.4598452977        1.0944874730        4.5017471207
 H        -8.8357323289        1.8161584106        4.8710126566
 H        -9.0318850225        0.0294180647        4.6986383990
 H        -6.8243492656        0.4999403308        3.0592504962
 H        -7.1007463323        2.1075644047        2.7704370442
 H        -7.3124079875        0.8727695415        1.4344766964
 H       -12.9641475859       -3.4573021469       -1.6979814824
 H       -13.5206865034       -1.8988682851       -2.5262110164
 H       -14.3813524023       -2.6370776127       -1.0987712559
 H       -10.8914858133       -1.7618195389       -2.2985516325
 H       -10.5415872370       -2.7656267024       -1.0181996120
 H       -10.3717256487       -1.0259308353       -0.6505996119
 H       -15.7574074143       -0.3658207980        2.6166181779
 H       -15.5349036639       -0.0356269326        4.4446097234
 H       -14.1783811255       -0.1188499080        3.3132593370
 H       -17.1619096164        1.4942028743        2.4618690325
 H       -16.6933259226        3.1338064285        2.7622897437
 H       -17.1762373192        2.0288144226        4.1254944369
 Na       -7.5279111703        4.8110012096       -1.9310170197
