117

 C       -14.7026623410        3.4598335174        4.7393885960
 C       -14.3174153455        2.2113272264        4.1030404482
 O       -13.3238909715        1.5889072669        4.4441854535
 C       -15.1285236009        1.6387112920        2.9757447253
 C       -14.6192252561        2.2789251532        1.5794272834
 O       -14.9631952094        3.3867348343        1.2742373911
 C       -13.6237604571        1.5657275485        0.7219257289
 C       -14.1371503024        0.3187051447       -0.0873310772
 C       -12.8733063861       -0.2315672654       -0.7687184124
 O       -12.2264107542        0.4877061728       -1.5433239113
 C       -12.4071194775       -1.7445703004       -0.5976081789
 C       -12.5102253332       -2.1151779047        0.8830259607
 O       -13.5350174449       -2.6428829127        1.2472354392
 C       -11.2749338839       -1.9259629575        1.7629537859
 C       -10.9652736525       -0.4465538087        1.9869642056
 C        -9.3832952022       -0.4864728322        2.3008542063
 O        -8.7221482142       -1.4478968209        1.9245164113
 C        -8.7817146209        0.7965089153        2.9552518992
 C        -9.2953811171        2.0572416724        2.1736055997
 O        -9.5047290350        2.0087127872        0.9630411554
 C        -9.3501351247        3.5006783406        2.7880922497
 C       -10.3171062817        4.3880444392        1.8849215054
 C        -9.7752192577        4.5872099691        0.4678093671
 O        -8.6202979196        4.3581031489        0.1553433816
 C       -10.7298397057        5.0542785069       -0.6581431279
 C       -10.0699018306        6.3173680885       -1.5049899761
 O        -8.9705601098        6.2173733506       -2.0509365435
 C       -10.8712397121        7.5840475368       -1.6950536579
 C        -9.8131224600        8.7131366456       -1.9392718460
 C        -8.6352447449        8.7485875416       -0.8525706961
 O        -8.8773261234        8.3578580457        0.2632062740
 C        -7.3225164304        9.5282727235       -1.1820129599
 C        -6.3169416568        8.3939964024       -1.7836579127
 O        -6.5364818598        7.9788000259       -2.8804113714
 C        -4.9889406085        8.0196369555       -1.0653458398
 C        -4.0920154339        7.1452118410       -2.0020287908
 C        -4.7320364255        5.7426094274       -2.2385731530
 O        -5.2803702745        5.2007053217       -1.2736937703
 C        -4.5232689967        5.0050275373       -3.6785728777
 C        -5.7231863102        5.4905921900       -4.4906188532
 O        -6.8619390047        5.2281871585       -4.1046874987
 C        -5.3905009320        6.2483006343       -5.7688736098
 C        -3.1211623926        5.4794390944       -4.1752387519
 C        -4.5275943607        3.5251621022       -3.3110062113
 C        -7.4626431241       10.6119819797       -2.3051039059
 C        -6.8040803417       10.2712329660        0.0851382607
 C       -10.8542607807        3.9188899482       -1.6750128458
 C       -12.1227660646        5.4554054870        0.0032783088
 C        -9.2466059900        0.7620102094        4.4362078824
 C        -7.2699768039        0.7724588208        2.8470623056
 C       -13.4978038246       -2.5726759962       -1.4264570441
 C       -11.0553633391       -2.0060144543       -1.2228641890
 C       -15.0260832214        0.1189243678        2.9708189956
 C       -16.6367971356        2.1252271734        3.0562771308
 H       -15.2442946436        3.3960079665        5.6636052890
 H       -15.2157278738        4.1777639805        4.1239445615
 H       -13.7603779340        4.0327814664        5.1295338860
 H       -12.8317903739        1.2784698633        1.4154951481
 H       -13.2280983502        2.2876093625       -0.0086115885
 H       -14.8008591672        0.7437448484       -0.8855455179
 H       -14.6742756277       -0.3484134106        0.5218677162
 H       -10.4635510623       -2.4570847933        1.2352053788
 H       -11.4060690277       -2.4318620705        2.7268517948
 H       -11.5259914467       -0.0704951664        2.8501667777
 H       -11.2351291271        0.2372996078        1.1497723705
 H        -8.2428195044        3.8794493743        2.7822794072
 H        -9.7861550139        3.5387646714        3.8111424601
 H       -10.4541101188        5.4002604148        2.3040068039
 H       -11.2686722632        3.9766257784        1.8607648510
 H       -11.4892008919        7.7529308032       -0.8261568387
 H       -11.6082665677        7.5226821514       -2.5465958474
 H       -10.2773962704        9.7287074355       -1.9636797116
 H        -9.4223021224        8.6011686452       -2.9318741255
 H        -5.2232738520        7.4229898174       -0.2093501182
 H        -4.4935951381        8.9538014467       -0.8038006337
 H        -3.2086485701        7.0089805794       -1.5068416025
 H        -3.8189374140        7.6365679723       -2.9085491923
 H        -4.6288308539        5.5935071772       -6.2300785369
 H        -5.0371477901        7.2607215120       -5.4818512466
 H        -6.2354057058        6.4751870415       -6.4349733549
 H        -3.2697393171        6.4162840644       -4.7227192031
 H        -2.6828480130        4.8162049716       -4.8485965753
 H        -2.4275533068        5.5768442276       -3.3261054162
 H        -5.5714490211        3.1703360918       -3.0411732866
 H        -3.8920943934        3.3605285691       -2.4509022987
 H        -4.0962538762        2.9310417741       -4.0706518333
 H        -8.2522740766       11.2871177734       -1.9653214948
 H        -7.8022570542       10.1827661750       -3.2004194278
 H        -6.5168097868       11.1003576704       -2.2653453447
 H        -5.8457838195       10.8355054025       -0.0305634806
 H        -6.6729141885        9.6357777481        0.9445026627
 H        -7.4977009014       11.0620336869        0.4270174266
 H       -11.8733736673        3.7742813985       -2.0503997759
 H       -10.5643238432        2.9581661236       -1.2217273879
 H       -10.1130744779        3.9507307642       -2.4773120072
 H       -12.7231770621        5.8610583136       -0.8356295045
 H       -11.9895258793        6.2933255098        0.7478757852
 H       -12.6229978475        4.6650418966        0.4686533469
 H       -10.2631687475        1.0503060588        4.3854225240
 H        -8.7346774394        1.5216281638        5.1025980492
 H        -9.0855587125       -0.2776895057        4.7316050965
 H        -6.8663393673       -0.0329472039        3.4355930899
 H        -6.7855019481        1.7426152536        3.0988339718
 H        -7.0330955404        0.5569587444        1.8455865098
 H       -13.4009491121       -3.5681744320       -0.9755541306
 H       -13.1951588544       -2.4662334194       -2.4348918491
 H       -14.5210030491       -2.1813386650       -1.3735255341
 H       -11.0123869630       -1.3787195142       -2.1533806440
 H       -11.0522365063       -3.0735689506       -1.3579157327
 H       -10.2581364500       -1.5892561150       -0.5861985784
 H       -15.7439286117       -0.3134136570        2.2386303614
 H       -15.4044383280       -0.2597403955        3.8918513396
 H       -13.9818055088       -0.3637788232        2.8936747717
 H       -17.0970253484        1.8100597953        2.0850882051
 H       -16.6288931912        3.1510396140        3.1751677105
 H       -17.0810913421        1.5639605596        3.7826040339
 Na       -7.4132541671        4.4951712133       -1.7510335507
