117

 C       -15.0956309942        4.5012834377        4.5951377450
 C       -14.6523390792        3.0939453316        4.2057784773
 O       -13.5017933337        2.7992824163        4.5149506174
 C       -15.4513773212        2.0548841221        3.4237924995
 C       -14.8477241817        2.2489992672        1.9850775049
 O       -15.3084506862        3.0876879679        1.2331745663
 C       -13.5780655454        1.4142317600        1.5203724987
 C       -13.8797818294        0.6215730908        0.2638504588
 C       -12.6934805988        0.0331266586       -0.4721098068
 O       -11.9404430556        0.8338532298       -1.0009935852
 C       -12.4874701725       -1.5381458527       -0.5970275734
 C       -12.1306779068       -2.2315359941        0.7395008434
 O       -12.8846390538       -2.9381969868        1.3912676863
 C       -10.6477078621       -1.9083657523        1.2241129648
 C       -10.7088685277       -0.6578010932        2.1181403039
 C        -9.2938364677       -0.2462937595        2.5340913324
 O        -8.3670302951       -1.0412009976        2.6101878203
 C        -8.9489331525        1.3063792362        2.8497109442
 C        -9.7215089199        2.3272810588        1.9853628746
 O       -10.4655677736        1.9770676698        1.0704745699
 C        -9.5786489768        3.7976619478        2.3809618690
 C       -10.4992281698        4.7009182201        1.4687908734
 C       -10.0515245023        4.6869313863       -0.0081709668
 O        -8.8596476347        4.4999979844       -0.2120632058
 C       -11.0470271787        4.9990503362       -1.2426681364
 C       -10.4256106919        6.2635012063       -1.8061483784
 O        -9.5947864229        6.1803655780       -2.6784396208
 C       -10.7148494405        7.6370642963       -1.1870809698
 C        -9.6903691081        8.6572344089       -1.6918688646
 C        -8.4539446496        8.5601267567       -0.7347039858
 O        -8.4569652454        8.1022466805        0.3727069380
 C        -7.1695421044        9.2596441348       -1.2895792767
 C        -6.2547582827        8.1924977425       -2.0186405270
 O        -6.7204554887        7.4535986631       -2.8780740303
 C        -4.7560035808        7.9849998211       -1.6553060946
 C        -4.0203979475        7.0396840373       -2.6174239296
 C        -4.4452968505        5.5197674427       -2.2481516261
 O        -5.2004328399        5.2158004066       -1.3501859129
 C        -4.0358886832        4.5423791729       -3.3010853482
 C        -5.2537283126        4.1671977822       -4.2432618736
 O        -6.4425661787        4.1976585138       -3.9367458611
 C        -4.9525279334        3.6703821652       -5.7079026708
 C        -2.7740963660        5.0891466019       -4.0504896633
 C        -3.6884669100        3.0669250488       -2.6650875561
 C        -7.4320514499       10.3478795250       -2.3954029174
 C        -6.4205069173        9.8352534460       -0.1174555825
 C       -10.8377500927        3.8093311120       -2.2315581937
 C       -12.6167633394        5.0804936330       -0.8846982414
 C        -9.4643342836        1.4831179317        4.3672025554
 C        -7.4099390751        1.4306758766        2.8249163232
 C       -13.8597354852       -2.1308666135       -1.0179813729
 C       -11.4626470813       -1.8117137122       -1.7622156386
 C       -15.2822440894        0.6317158378        3.9817293934
 C       -16.9210235221        2.3402373018        3.3817427777
 H       -14.3176268836        4.8375573685        5.2507021270
 H       -15.9569627961        4.6079804940        5.2354238235
 H       -15.2477200272        5.1734487316        3.7642453030
 H       -13.2615187250        0.7136001856        2.3392023505
 H       -12.8198664318        2.1756112520        1.3069471828
 H       -14.4249396679        1.3049774878       -0.3508771287
 H       -14.5920802265       -0.2112482338        0.5110276632
 H        -9.9973221783       -1.8285443429        0.3775792157
 H       -10.1762838552       -2.5963999462        1.9116942787
 H       -11.1583515313       -0.9702277794        3.1079998631
 H       -11.1452927953        0.2327037717        1.7415564505
 H        -8.5804062136        4.1200257155        2.3586602459
 H        -9.8885200750        3.9210350161        3.4407429629
 H       -10.4620982258        5.6903986300        1.8946984181
 H       -11.5609796793        4.2852107353        1.5298149069
 H       -10.5784861646        7.4881303417       -0.0901784865
 H       -11.7112358706        7.9262964520       -1.3522005200
 H       -10.0341770435        9.6534204445       -1.7149096908
 H        -9.4054965002        8.3320885774       -2.7272294798
 H        -4.7455884000        7.6238373270       -0.6231667460
 H        -4.2742789434        8.9646689159       -1.5641081555
 H        -2.8966320979        7.2198662664       -2.5385956548
 H        -4.3588970626        7.1971230559       -3.6325049723
 H        -4.2806211645        2.8412688490       -5.5902587829
 H        -4.3247666807        4.5081534950       -6.1398411048
 H        -5.8867821463        3.3634300635       -6.0789587655
 H        -2.9018986392        6.0483349095       -4.5535514973
 H        -2.4247347513        4.4475663979       -4.8530230214
 H        -1.9525682278        5.0474592350       -3.3045904792
 H        -4.6012557386        2.5350668103       -2.3653455388
 H        -3.0710235355        3.1942159589       -1.8576777538
 H        -3.2343865853        2.4565529617       -3.4808570520
 H        -8.0316773952       11.1512007256       -2.0172882696
 H        -7.9198576195        9.9211132343       -3.3032558856
 H        -6.4830605735       10.8193206642       -2.6223159146
 H        -5.6048850013       10.3963273097       -0.5431554846
 H        -6.0653722750        9.0732652052        0.5818451579
 H        -6.9857864847       10.5424291307        0.4514036955
 H       -10.9210691799        4.1367152299       -3.2511496403
 H       -11.6200761031        3.0622729072       -2.0382131918
 H        -9.8629486259        3.3463311891       -2.1124245699
 H       -13.2561389415        5.3953412111       -1.6953327033
 H       -12.8715961425        5.6978557679       -0.0423303733
 H       -12.9197172864        4.0214974216       -0.6165548233
 H       -10.4819243531        1.0266099058        4.4382595882
 H        -9.4870502191        2.4955887228        4.6784269821
 H        -8.7841592501        0.9746581321        5.0791799548
 H        -6.9661242912        0.6164754635        3.4178985490
 H        -7.0909160843        2.3783075099        3.1541984987
 H        -6.9319735854        1.3696810344        1.8249410317
 H       -13.6961941953       -3.0073819193       -1.6326099650
 H       -14.4466914575       -1.4791896734       -1.7135730506
 H       -14.4050257215       -2.3261685055       -0.1332566688
 H       -11.9263653768       -1.7730648760       -2.7142880700
 H       -10.9749995900       -2.7552471573       -1.4946755224
 H       -10.7059310258       -1.0863663847       -1.9166997504
 H       -15.5749905178       -0.0718179852        3.2585204374
 H       -15.9457061909        0.4891578523        4.8568657618
 H       -14.2857673472        0.4820919956        4.2916698828
 H       -17.3269217315        1.7587774030        2.4779312979
 H       -17.1733797868        3.4008042520        3.2993350397
 H       -17.3966201803        1.8775011432        4.2727356244
 Na       -7.6000987019        5.1062140004       -2.0252208211
