117

 C       -13.5145137342        2.4009542869        0.5048225958
 C       -12.6967257607        1.7536545994       -0.6390006173
 O       -12.0551262131        2.5640437453       -1.3270639016
 C       -12.6666303527        0.2341609206       -0.8198281737
 C       -11.0783258911       -0.0000408652       -0.4375312314
 O       -10.2735449733        0.2206659442       -1.3626983964
 C       -10.6264398834       -0.7647181206        0.7310685857
 C        -9.2080113214       -0.1414954978        1.2389190947
 C        -8.0671601748       -0.5751595399        0.2297134957
 O        -8.3381745732       -1.4566353023       -0.5511679236
 C        -6.6277748052       -0.0901475624        0.4964818775
 C        -6.4807375527        1.2758667697       -0.5476590617
 O        -5.9017941109        2.2478445357       -0.1543092968
 C        -7.1629294014        1.1659995501       -1.9813138820
 C        -6.9683320996        2.4637559208       -2.8279767418
 C        -7.6071436832        2.1847314060       -4.2068331969
 O        -8.5507861333        1.3792684090       -4.3422038949
 C        -7.1126891325        3.1271922679       -5.4779422660
 C        -7.7927696297        4.5263166030       -5.1850120803
 O        -7.3962570252        5.2231774710       -4.2610277174
 C        -8.8020638855        5.1343685455       -6.3627670424
 C        -9.9465010618        5.8846963881       -5.7333201358
 C       -10.3858965822        5.1581097166       -4.4463763455
 O       -10.2797152806        3.9329888376       -4.4086646980
 C       -10.8505503355        5.9001406899       -3.0915112649
 C        -9.8117752923        5.5941062428       -1.9767390376
 O        -8.9145716456        4.7817669083       -2.1964267340
 C        -9.8535459314        6.6426849001       -0.9242402064
 C        -8.5154047048        6.7949632279       -0.2299171340
 C        -8.7461262472        7.2856473245        1.1972977050
 O        -9.2644736660        8.3065382621        1.5177202483
 C        -8.2405995360        6.3937048985        2.4817294551
 C        -9.5095639651        5.6345306213        2.6914543699
 O        -9.7594708382        4.5676794060        2.1686570176
 C       -10.4627697802        6.2311634961        3.8031682764
 C       -11.8652172535        5.5000059702        4.1367569575
 C       -11.9328713720        4.9552572712        5.5662502461
 O       -10.9818392211        4.4644373341        6.1646444583
 C       -13.3918643475        5.0719455961        6.3051511018
 C       -14.3405816243        4.5469004149        5.1241982659
 O       -14.7961933733        5.2607942274        4.2743098926
 C       -14.6204401647        3.0540474117        5.0506362109
 C       -13.4561001942        4.2231915546        7.6902607348
 C       -13.6807419090        6.6139862865        6.4920887970
 C        -6.9764835670        5.5300440658        2.1682816108
 C        -7.8476403316        7.3628108740        3.6623211303
 C       -11.1759902774        7.4250020205       -3.4083896829
 C       -12.2261266503        5.1035878414       -2.8161621135
 C        -5.5912601306        3.5176728289       -5.3815173621
 C        -7.4066672854        2.2628176690       -6.7584288745
 C        -6.4856843742        0.3525776484        2.0431050792
 C        -5.7643780156       -1.2901796566        0.3159351568
 C       -13.6379656304       -0.6666813527        0.0110141852
 C       -12.7781448920       -0.0147830858       -2.3605976514
 H       -14.3171571579        2.8329202136       -0.1063937818
 H       -12.8775464336        3.2186461058        0.8986385036
 H       -13.8261668326        1.7264084163        1.3189107390
 H       -10.5531407033       -1.8856356364        0.5032152680
 H       -11.3142058405       -0.7746663088        1.6380653014
 H        -8.7862325268       -0.5090453511        2.2140956462
 H        -9.5124951237        0.8568629803        1.1550707229
 H        -8.1040166588        0.5754891207       -1.7002595547
 H        -6.5121655891        0.3532386670       -2.2788096906
 H        -5.9075598441        2.8023072853       -2.7145781162
 H        -7.6726259925        3.2090644946       -2.3994575430
 H        -9.0812041603        4.2886914568       -7.0431032049
 H        -8.1631217487        5.6611932057       -7.0633264173
 H       -10.8322982271        6.0736072915       -6.2537569864
 H        -9.6507005192        6.9455291696       -5.3490891635
 H       -10.5238557914        6.2606618537       -0.1489452494
 H       -10.1219626951        7.6748336643       -1.3465103672
 H        -7.8013556428        7.4781482815       -0.8292242382
 H        -8.0876338008        5.8206643465       -0.2050702112
 H       -10.6354224337        7.2581977997        3.5136999138
 H        -9.8171937688        6.3508105705        4.7981847475
 H       -12.1286276068        4.6373923323        3.5459569460
 H       -12.7286959186        6.1469311356        4.1886830171
 H       -14.2563035400        2.5885878560        6.0620625812
 H       -14.1179203952        2.7303163473        4.1263342765
 H       -15.5907829651        2.8721892241        4.7809178683
 H       -14.4226676386        4.2636502480        8.2829647018
 H       -12.6426238075        4.5937741556        8.3361719834
 H       -13.4897591562        3.1776643630        7.6996325322
 H       -14.5489831367        6.6898805926        5.8938227401
 H       -13.0702840210        7.1703174207        5.8934385357
 H       -13.7063162659        7.0129441471        7.4575791171
 H        -6.7730013063        4.9519121238        3.0362543136
 H        -6.0241819586        6.1694142324        1.9424470552
 H        -7.3020054775        4.7915587446        1.3636015842
 H        -7.6118558184        6.8565655957        4.5712607175
 H        -8.7763155830        7.9130244141        3.7614206521
 H        -6.9196828164        7.8532885347        3.3344297168
 H       -11.4338491031        7.9680164478       -2.5629192902
 H       -12.0377389831        7.4328317327       -4.1704023952
 H       -10.3696384651        7.8266167116       -3.9955011235
 H       -12.3785301701        5.1865467625       -1.7210446821
 H       -12.1633222649        4.0699791247       -3.0856064692
 H       -13.0693001137        5.6208944716       -3.3064860207
 H        -5.3145298029        3.8458115697       -4.4267251097
 H        -5.3382731712        4.1875773769       -6.1571451528
 H        -5.0915331733        2.5944092847       -5.3798004587
 H        -6.8101508421        1.3473788245       -6.7561109805
 H        -7.2231170644        2.6395608264       -7.7690076656
 H        -8.4468545043        2.0076593593       -6.6353648302
 H        -5.6340195412        0.9018601620        2.0425032211
 H        -6.3052069180       -0.4278550669        2.7928212692
 H        -7.3045587696        1.0563053530        2.2569265478
 H        -5.7687021006       -1.8325284631        1.2526992189
 H        -4.7115023275       -1.0274419999        0.0909816115
 H        -6.1889640788       -1.7820084303       -0.5535053243
 H       -14.6482474594       -0.3249418019       -0.0051409961
 H       -13.2578052621       -0.4903592674        1.0828857498
 H       -13.7046911632       -1.7071619991       -0.2505931066
 H       -13.6477064046        0.4486080423       -2.8498391259
 H       -12.8217287756       -1.1341942754       -2.4156904625
 H       -11.7866186202        0.2014013241       -2.8284926403
 Na      -10.0522977800        2.1898605993       -2.7556431935
