117

 C       -14.9982325080        4.0754718641        4.6919008597
 C       -14.5177630862        2.7298991983        4.2901507774
 O       -13.5397796749        2.2304822090        4.8372213094
 C       -15.2314197812        1.8437958662        3.1831806972
 C       -14.5481690211        2.2888464083        1.8818906377
 O       -14.6953802845        3.4305168492        1.4790824275
 C       -13.4685757158        1.3715134712        1.3261137624
 C       -14.0159123054        0.2175012736        0.3690275336
 C       -12.8488964483       -0.2161742110       -0.5303431974
 O       -12.3914871040        0.6225841614       -1.2997173729
 C       -12.2995578364       -1.7198460802       -0.6965852036
 C       -12.3783380960       -2.3463864101        0.7137696807
 O       -13.4229481988       -2.7979841683        1.1355882115
 C       -11.0575823361       -2.2040392943        1.5918571232
 C       -10.8522292905       -0.7378858020        1.8904920670
 C        -9.4525558963       -0.4579074048        2.4821818789
 O        -8.7181907716       -1.3706102824        2.8594625410
 C        -9.0374672795        1.0699682207        2.7756475734
 C        -9.7943091172        2.1871719321        2.0311617970
 O       -10.4641195701        2.0166194408        1.0282164575
 C        -9.6268490715        3.6476047105        2.5632153256
 C       -10.4413965680        4.6826323196        1.7418975332
 C        -9.9531754844        4.7516674326        0.2357076287
 O        -8.7796358173        4.4638763222        0.0873482086
 C       -10.8178642858        5.0868260364       -1.0185426191
 C       -10.2450523128        6.4019191852       -1.7460704057
 O        -9.4525108236        6.2560592203       -2.6809598122
 C       -10.7824183464        7.7507213657       -1.3133724277
 C        -9.6829350691        8.7563237960       -1.6831915573
 C        -8.4412859360        8.6029085935       -0.8613912770
 O        -8.4857587367        7.9050941985        0.1421876130
 C        -7.1622373677        9.3969244257       -1.3070974003
 C        -6.2038675309        8.2309723997       -1.8189685909
 O        -6.6537132301        7.4789428740       -2.6522035937
 C        -4.7506488488        8.1100880655       -1.3960368458
 C        -4.0829688210        7.1282709038       -2.2833051962
 C        -4.6234076050        5.7092255450       -2.2397135736
 O        -5.3696764897        5.2315727237       -1.3840339502
 C        -4.1732374577        4.8703732416       -3.4401319692
 C        -5.4910157858        4.8677991230       -4.3838566395
 O        -6.5524341933        4.4736584525       -4.0085701981
 C        -5.2518131390        5.0048859064       -5.9519985423
 C        -2.8306811231        5.4243607032       -4.0908182753
 C        -3.9745054855        3.3904997746       -2.9664826171
 C        -7.3186760503       10.3566421964       -2.5727118844
 C        -6.5208703504       10.1642202177       -0.0711535901
 C       -10.7158712589        3.9265083669       -1.9965813934
 C       -12.2979416198        5.4178591991       -0.5560157084
 C        -9.3107986112        1.3139755212        4.3547772765
 C        -7.4871923715        1.1549240710        2.5756900980
 C       -13.4028707751       -2.5530288158       -1.5763602483
 C       -10.9386884002       -1.6905565931       -1.4030371760
 C       -15.0562980056        0.3517959510        3.5401202898
 C       -16.7783950359        2.1611169510        3.1703348196
 H       -14.1974846316        4.7447383993        4.7963294047
 H       -15.4700226381        4.0476567322        5.6222343441
 H       -15.6652771774        4.6524053693        3.9807257080
 H       -12.8562330713        1.0158634695        2.1213995034
 H       -12.7304860753        1.9103838603        0.7093045286
 H       -14.8141979125        0.6871608838       -0.2491792215
 H       -14.4766683978       -0.6459172508        0.7974258220
 H       -10.2924848528       -2.6051629360        0.9432755222
 H       -11.1835046647       -2.8639231190        2.4856390162
 H       -11.6391097224       -0.4408388813        2.5633513999
 H       -10.9491029573       -0.0908014376        0.9786562959
 H        -8.5784294451        3.8491128075        2.5636992491
 H        -9.9470080593        3.6760233401        3.5480163174
 H       -10.3294539980        5.7436022092        2.1700658319
 H       -11.4916237344        4.4365043197        1.8578645699
 H       -10.9710795118        7.6695120457       -0.2644642068
 H       -11.7042403942        8.0246901534       -1.8899884831
 H       -10.0339340843        9.8301203004       -1.4845094377
 H        -9.5105597751        8.6083662301       -2.7155241683
 H        -4.7359256140        7.8680844459       -0.2772146119
 H        -4.3161697623        9.0946053479       -1.4688658839
 H        -2.9695675810        7.2438785807       -2.2397076312
 H        -4.2526995262        7.4630670111       -3.4012131466
 H        -4.6343692264        4.1614876428       -6.0965776674
 H        -4.6712372558        5.9068566314       -6.0301899459
 H        -6.1748684232        4.9617733658       -6.5411579520
 H        -2.8303478369        6.4865596987       -4.3451985630
 H        -2.5503272287        4.8430046858       -4.9150305142
 H        -2.0266182224        5.3532313962       -3.3509962180
 H        -4.9586889909        2.8029711477       -2.8148768644
 H        -3.3507946126        3.3679436715       -2.0629735493
 H        -3.4369290884        2.9037680176       -3.7168711747
 H        -8.0630684782       11.1195435116       -2.3393508454
 H        -7.5132543477        9.7451872450       -3.3910471239
 H        -6.3905930793       10.8313446109       -2.7841322611
 H        -5.4199040839       10.2774385204       -0.1550424354
 H        -6.6255060096        9.6195761791        0.8362359376
 H        -6.9461882841       11.1387232260        0.1135380055
 H       -11.5493194892        3.9836967097       -2.6715757898
 H       -10.7715631017        2.9980617105       -1.4299856411
 H        -9.8895160434        3.9229783508       -2.6861787691
 H       -12.9676141851        5.6587785118       -1.4004837980
 H       -12.3520232969        6.1902776443        0.2782907522
 H       -12.6766501559        4.5211959705       -0.1486611667
 H       -10.3026366673        1.0526294953        4.6643581605
 H        -9.0131905257        2.3680477307        4.5624411664
 H        -8.5737483249        0.6369850448        4.8490775650
 H        -7.0750562607        0.3497054037        3.1937272083
 H        -6.9866954997        2.0421012607        2.9903162224
 H        -7.1775379023        0.9668738692        1.5702820896
 H       -13.1348885620       -3.6212429698       -1.3930836739
 H       -13.2206376246       -2.3663926201       -2.6300381010
 H       -14.4269516364       -2.4009986713       -1.2475228285
 H       -11.0052124241       -0.9852093446       -2.2420645253
 H       -10.7959954397       -2.6182660857       -1.9355514604
 H       -10.1625603133       -1.5515622758       -0.6430430240
 H       -15.4137486505       -0.3035160846        2.7834930893
 H       -15.5048289056        0.1204587189        4.4423660702
 H       -13.9687768206        0.1523808307        3.6553718581
 H       -17.2234395234        1.7727281601        2.1907804238
 H       -16.9274785298        3.2453027212        3.2182071361
 H       -17.1774757118        1.7183789301        4.0586256855
 Na       -7.6183640872        4.9310772482       -1.9862688853
