117

 C       -15.1442102815        4.5290348906        4.5657363781
 C       -14.5712375618        3.1355259435        4.2377491880
 O       -13.3920578957        2.8426136530        4.4085337446
 C       -15.5240663729        2.0298618999        3.4302849416
 C       -14.9189741531        2.2568139115        1.9905790191
 O       -15.4309227894        3.0455830440        1.2432339873
 C       -13.6492126688        1.4775053275        1.4954090161
 C       -14.0194343554        0.6541390437        0.2161033953
 C       -12.6966079441        0.0331063204       -0.4316443419
 O       -11.8489565534        0.7529210842       -0.9434000869
 C       -12.5948293978       -1.4930029268       -0.6009754726
 C       -12.0703379647       -2.1386568959        0.7123636438
 O       -12.7344834751       -2.8848682730        1.3565840681
 C       -10.6267970258       -1.8656993948        1.2319512164
 C       -10.5965239969       -0.6674580810        2.1667214765
 C        -9.1579117556       -0.1872976086        2.4755680297
 O        -8.2404258649       -0.9767476404        2.5140891793
 C        -8.9330071826        1.2765910326        2.9399193632
 C        -9.6334214533        2.3440973338        2.0181881750
 O       -10.3171923616        2.0192025591        1.0870548730
 C        -9.5221262787        3.8279833570        2.3504750461
 C       -10.5729454811        4.6781236082        1.4578176768
 C       -10.1025667851        4.6296679012       -0.0213748367
 O        -8.9070189224        4.4675683441       -0.2359593110
 C       -10.9653930428        4.8759343689       -1.2286773918
 C       -10.4130786681        6.2442341095       -1.8347904526
 O        -9.5370031262        6.2233267218       -2.6726530045
 C       -10.7454359368        7.6602910264       -1.2298974815
 C        -9.6177952005        8.6070892986       -1.6757333093
 C        -8.4058122594        8.6028867989       -0.8144203844
 O        -8.4722207419        8.1137577503        0.3172375892
 C        -7.0377433815        9.2115310085       -1.3297431131
 C        -6.3180332692        8.0783680773       -2.1121503341
 O        -6.8820219090        7.4406031758       -2.9991533660
 C        -4.8794873183        7.9465920693       -1.7206842368
 C        -4.1964343170        6.9290840489       -2.5266054619
 C        -4.6240663279        5.5059401627       -2.3450132320
 O        -5.2575318920        5.2145512648       -1.3515530063
 C        -4.0341936389        4.4914633998       -3.3140970293
 C        -5.2744368777        4.1388618699       -4.2490729552
 O        -6.3920170670        4.2243883025       -3.8390653721
 C        -4.7789137147        3.4874647263       -5.5933676841
 C        -2.7587798919        4.9751628417       -4.0496749149
 C        -3.6428578807        3.1534781669       -2.6433134307
 C        -7.4581716188       10.3473942320       -2.2829454012
 C        -6.2651984125        9.7636424757       -0.0764146392
 C       -10.7741306380        3.7494667674       -2.2212321713
 C       -12.4697852525        5.1401576297       -0.9149757734
 C        -9.5342308164        1.4429991637        4.3730070271
 C        -7.4165121030        1.5297425680        2.9040575420
 C       -14.0626438587       -2.1103837463       -0.9363744602
 C       -11.5791946631       -1.7483242118       -1.6944821423
 C       -15.2822400790        0.6504538340        4.0676154572
 C       -17.0401591439        2.4305080923        3.3243777960
 H       -14.4858360321        5.1470932980        5.1415144397
 H       -16.0635007685        4.6252786602        5.0976310138
 H       -15.3671016714        4.9422006379        3.4975075556
 H       -13.3973433039        0.7754253878        2.2780522874
 H       -12.8151868927        2.2221832066        1.2862892939
 H       -14.5217649785        1.3676538349       -0.4348451639
 H       -14.7609673469       -0.1373548264        0.4812815922
 H       -10.0468849636       -1.6069179569        0.3803364222
 H       -10.1185203172       -2.7118817321        1.7371142662
 H       -11.1009253364       -0.7580410705        3.1347737391
 H       -10.9433565323        0.2131703350        1.5981390802
 H        -8.4563323825        4.2638214171        2.2273355351
 H        -9.7362844432        3.9167707110        3.4592397942
 H       -10.5364336289        5.6864433194        1.8080160073
 H       -11.5747697070        4.2795177964        1.5750079886
 H       -10.8472205153        7.5120917392       -0.1503919330
 H       -11.6785015655        8.0638052237       -1.6070384516
 H        -9.9578177822        9.6655813610       -1.6813250212
 H        -9.3938303621        8.3438064732       -2.6773639352
 H        -4.8674405641        7.7918319058       -0.6073069353
 H        -4.4135189618        8.8579830098       -1.8433023337
 H        -3.1989396564        6.9486108491       -2.2430753921
 H        -4.3127438496        7.2014387286       -3.5492687440
 H        -4.2186025743        2.6584469432       -5.1825843812
 H        -4.0205335822        4.1455896000       -5.9945859272
 H        -5.7047222006        3.1165727335       -6.1105074065
 H        -2.9870491339        5.8999636412       -4.6614706792
 H        -2.4767610262        4.2795861698       -4.8372789499
 H        -1.8383777567        5.0229855047       -3.3847171841
 H        -4.5127690462        2.4847990904       -2.3552627082
 H        -3.1357682782        3.4629247240       -1.7306106774
 H        -2.9899224804        2.6430642929       -3.2681623109
 H        -8.2195787897       11.0198337040       -1.7503486910
 H        -7.9956779921        9.9472978355       -3.1681209907
 H        -6.5932855053       11.0109443322       -2.5456850073
 H        -5.2402875883       10.1307038992       -0.2699735003
 H        -6.3007640751        9.0646728392        0.7086632127
 H        -6.7858153538       10.6299970511        0.2593086855
 H       -11.2444721192        3.9757274418       -3.1775010088
 H       -11.3008602402        2.8709632039       -1.8112956085
 H        -9.7203425856        3.5065346601       -2.3147841514
 H       -12.9862138466        5.3659140350       -1.8333570751
 H       -12.6447066988        6.0130390512       -0.2399890495
 H       -12.9415481172        4.3248667729       -0.4671624049
 H       -10.5747445761        1.2402108926        4.4203825336
 H        -9.3624585220        2.4621573857        4.6918140844
 H        -8.9823268351        0.8155154250        5.0938585978
 H        -6.8786506713        0.7204870416        3.4574230915
 H        -7.1182805012        2.5316736156        3.2102747475
 H        -7.0024620351        1.4707103658        1.8964828871
 H       -14.0012447993       -3.1935148629       -1.2448143524
 H       -14.5364791627       -1.6200587289       -1.8024590071
 H       -14.6970072225       -1.9994900935       -0.0544376745
 H       -11.9010857558       -1.3719961985       -2.6360886234
 H       -11.3066900421       -2.7583572603       -1.6456197387
 H       -10.6764838021       -1.1874859935       -1.6409646123
 H       -15.4501744203       -0.1516638071        3.3737447835
 H       -15.8473132113        0.4905064210        4.9442624707
 H       -14.1919069808        0.7169453531        4.3540743789
 H       -17.5111344726        1.8791867934        2.4441220964
 H       -17.0919505709        3.4979088148        3.1263758270
 H       -17.5858221308        2.1800203529        4.2052307110
 Na       -7.6655276635        5.0818217775       -1.9919445540
