117

 C       -15.1756898431        4.2994983577        4.7600849088
 C       -14.4923422525        2.9515835884        4.3230248128
 O       -13.4910829571        2.5508398815        4.9006603150
 C       -15.2770022093        1.9246619809        3.2886320528
 C       -14.6034880946        2.2128206306        1.9154330133
 O       -15.0151976593        3.1745606750        1.2868421090
 C       -13.4498457754        1.3468857499        1.3519393185
 C       -13.9450910157        0.1676018229        0.4109865808
 C       -12.7874511617       -0.1722474168       -0.5412072712
 O       -12.1142509935        0.7377932641       -1.0416819979
 C       -12.4129464202       -1.6738259594       -0.7371406012
 C       -12.2690833080       -2.3102292336        0.7038937076
 O       -13.2823288909       -2.7278727723        1.2261081445
 C       -10.8505238363       -2.0120435060        1.3553069312
 C       -10.8426218307       -0.7169458963        2.0800586328
 C        -9.4379389133       -0.2840925567        2.6355999233
 O        -8.5166511194       -1.0808439921        2.7979577680
 C        -9.1507132360        1.2069535263        2.9377492486
 C        -9.9176715317        2.2293662934        2.1483819539
 O       -10.4743504023        1.9751854488        1.0937317956
 C        -9.7184245398        3.6900594487        2.4792297251
 C       -10.4937859416        4.5911623277        1.4254834398
 C        -9.8959940218        4.6493961924       -0.0118700441
 O        -8.7025411772        4.5552960297       -0.2481467366
 C       -10.9441682417        5.0015446698       -1.1335781775
 C       -10.4187852181        6.2528003938       -1.8956451169
 O        -9.5101930648        6.2341690374       -2.7144117372
 C       -10.8285176426        7.6115329724       -1.2697204087
 C        -9.7745593749        8.7894544467       -1.5065289295
 C        -8.4953287429        8.6352420579       -0.6879236632
 O        -8.4367699433        7.9218608984        0.2661586526
 C        -7.1305765265        9.3995233550       -1.2749177303
 C        -6.1920840524        8.2393365006       -1.7437298542
 O        -6.7646479658        7.4032009024       -2.4265947332
 C        -4.6869421340        8.0489794599       -1.3564165707
 C        -3.8101972904        7.1535965737       -2.2640507040
 C        -4.3056253357        5.6934255962       -2.3816227209
 O        -5.0933372644        5.3360843196       -1.5335287565
 C        -4.0755330441        4.6358162899       -3.4812719475
 C        -5.3749443943        4.3902127121       -4.4407626792
 O        -6.4941022498        4.2371720763       -3.9831222951
 C        -5.0973572921        4.3446490292       -5.9356549567
 C        -2.7771236258        4.8507999016       -4.3381761430
 C        -3.8962259976        3.2726835945       -2.6546407670
 C        -7.3941693361       10.3032756228       -2.5561619170
 C        -6.6270153658       10.2369490648       -0.1352764018
 C       -10.9929253377        3.7535472727       -2.0706859644
 C       -12.4422621422        5.1667711140       -0.5937900747
 C        -9.3427475202        1.3865430622        4.5081061626
 C        -7.6556076962        1.4692532128        2.4566288018
 C       -13.6440150417       -2.2912131529       -1.4622825906
 C       -11.1478036045       -1.7720989427       -1.6648965241
 C       -15.1816890092        0.4323842287        3.8294367874
 C       -16.7096044912        2.3844175653        3.1917290896
 H       -14.4425895751        5.0133807146        5.1636059644
 H       -15.9775292776        4.2613082858        5.5078292792
 H       -15.5735173854        4.8434015328        3.8250112923
 H       -12.7545271726        0.9125972866        2.0526097443
 H       -12.8442632038        1.9817262315        0.6745682700
 H       -14.7450931545        0.4206270615       -0.2666344787
 H       -14.3356390119       -0.7377726427        0.9481493583
 H       -10.0159862285       -2.1980187290        0.7078997254
 H       -10.8060778498       -2.8650126380        2.1081921691
 H       -11.4507684802       -0.8040543524        2.9971353098
 H       -11.1777619359        0.1028645401        1.4407639584
 H        -8.5930956369        3.8574307806        2.5150054846
 H       -10.0690006581        3.8981075317        3.5641157122
 H       -10.5547880040        5.5938723114        1.7388867500
 H       -11.5252495386        4.2010946703        1.3902563549
 H       -10.8866392588        7.5090776804       -0.1581827817
 H       -11.8168984964        7.8974032492       -1.6579719995
 H       -10.2982796578        9.7396499014       -1.2558992251
 H        -9.4088573413        8.7911188259       -2.5190424545
 H        -4.7080876514        7.7687175178       -0.2526581649
 H        -4.2871013188        9.0027204546       -1.3401697347
 H        -2.8021728904        7.2782567097       -1.9994537824
 H        -3.9045903811        7.5488970637       -3.2423855000
 H        -4.1926640514        3.8188722649       -6.1584291854
 H        -5.1186372552        5.4427117031       -6.2503347935
 H        -5.9571599895        3.7393042839       -6.1493093848
 H        -2.9209872620        5.4840201083       -5.2385183722
 H        -2.5215129282        3.8979698304       -4.7096170409
 H        -1.8523095670        5.1795386301       -3.7983924396
 H        -4.5208925428        3.1985318002       -1.6873669975
 H        -2.8760770880        3.2927891352       -2.4288233858
 H        -4.1838229339        2.3999005232       -3.2361119954
 H        -8.0541583236       11.1628879138       -2.3219782889
 H        -7.6102081135        9.6186527884       -3.3936256661
 H        -6.4364145129       10.7863549440       -2.8331964818
 H        -5.6790495333       10.8043853108       -0.3707611637
 H        -6.4719478000        9.6579668580        0.7747647982
 H        -7.3841643032       10.9644855864        0.1147845964
 H       -11.8521338133        3.8178663020       -2.7207238817
 H       -11.1093509019        2.8462638969       -1.4141249158
 H       -10.1758187422        3.6941855881       -2.7933599971
 H       -13.0695294146        5.3974575339       -1.4298131022
 H       -12.5006032357        6.0593980483        0.0499571663
 H       -12.9189185699        4.3248545005       -0.1329371182
 H       -10.3759454481        1.6454952933        4.6304810065
 H        -8.6554679225        2.0951700075        4.9046928915
 H        -9.1814069546        0.4374526684        5.0758458335
 H        -6.9737002474        0.6632549052        2.8171168197
 H        -7.2687367666        2.3713650252        2.8721165328
 H        -7.5443571728        1.5844528521        1.3719645049
 H       -13.4539278795       -3.2497973441       -1.9747463487
 H       -13.8848943168       -1.6672949747       -2.3549410124
 H       -14.3962048919       -2.2748446608       -0.7114067288
 H       -11.5155285822       -1.3762862723       -2.6336165366
 H       -10.7663477105       -2.8114207239       -1.7898527268
 H       -10.2664422194       -1.1551931732       -1.3898914589
 H       -15.4955133289       -0.3113870744        3.0896813619
 H       -15.9513460313        0.3197696998        4.6191142739
 H       -14.1517922767        0.1918492571        4.2407287817
 H       -17.2736822226        1.4578247570        2.8577999158
 H       -16.8182581155        3.1152850025        2.4655053268
 H       -17.0073463089        2.7187264741        4.1213554768
 Na       -7.4468379444        5.2912274877       -2.1443912204
