117

 C       -15.1037447399        4.7062641215        4.4301737805
 C       -14.5824137529        3.3957389635        3.9768580813
 O       -13.4071156059        3.1598846367        4.0237990049
 C       -15.5683678048        2.3121262177        3.4367237015
 C       -15.3022102914        2.3302729244        1.8346596925
 O       -16.0346585171        2.9507142037        1.0798986690
 C       -14.0611190004        1.5219304876        1.4144635082
 C       -14.2206419534        0.8033067571        0.0413794403
 C       -12.9449609834        0.0972637521       -0.3787292449
 O       -11.9746853480        0.8031193171       -0.5997399594
 C       -12.8095884325       -1.5350607922       -0.4647239413
 C       -11.8586847512       -1.9031182474        0.7112211962
 O       -12.2706390261       -2.4727450356        1.7151053390
 C       -10.4338115603       -1.2759796474        0.7926267120
 C       -10.2543674969       -0.7467632405        2.1776282771
 C        -8.9455683774       -0.0087730732        2.3200742023
 O        -7.9536961690       -0.3741913237        1.7585011671
 C        -8.8797880312        1.3566788472        3.0859280583
 C        -9.3349900703        2.3884448440        2.0880491186
 O        -9.4690387699        2.1019960386        0.8987550707
 C        -9.6039221275        3.8638441439        2.5430253614
 C       -10.2654907536        4.7319859028        1.4840851930
 C        -9.7011646033        4.8047805968        0.0766469709
 O        -8.5530286517        4.6195839403       -0.2586514331
 C       -10.8292000877        4.9918254686       -1.1619930765
 C       -10.3182464503        6.1852646724       -1.9689526437
 O        -9.4865794258        6.0672350661       -2.8633946389
 C       -10.8179194018        7.5943862766       -1.6219641837
 C        -9.6757587498        8.5341811608       -2.0088062239
 C        -8.6175517032        8.4683924442       -0.8887225271
 O        -8.8059118012        7.9127335117        0.1456015030
 C        -7.2580981944        9.2580366099       -1.1448062268
 C        -6.4230713868        8.1238627048       -1.9067836079
 O        -6.9510587483        7.3856149977       -2.6923917636
 C        -4.8761056230        7.8857767630       -1.7387631122
 C        -4.4017818651        6.9071187689       -2.8388225271
 C        -4.5986069101        5.4064270924       -2.4322030681
 O        -5.2546890413        5.1981367773       -1.4165135707
 C        -4.0941315435        4.1216358489       -3.2600608968
 C        -5.1678768381        3.4528910598       -4.1067106740
 O        -6.3774159887        3.7131040404       -4.0059822232
 C        -4.6888005866        2.3411662030       -5.1271801092
 C        -2.8302576275        4.5304541169       -4.0120640735
 C        -3.8790241235        2.9493142198       -2.1391806491
 C        -7.3867863943       10.4599850155       -2.1673621877
 C        -6.6017410062        9.7059134691        0.1696232120
 C       -10.7441581204        3.6972735098       -2.0728439923
 C       -12.2458676806        5.1821691438       -0.7668450644
 C        -9.7341932144        1.3627315394        4.4053333158
 C        -7.3963502159        1.6350295519        3.5441031368
 C       -14.1179240241       -2.2507019486       -0.4233366483
 C       -12.0817696300       -1.8577967314       -1.8248021698
 C       -15.2327461928        1.0011647752        4.1871553391
 C       -17.0002207747        2.6903899179        3.5752565755
 H       -14.3050209264        5.5055637311        4.4139239651
 H       -15.4489260702        4.6061222940        5.5123416666
 H       -15.9885085043        5.0319392748        3.9871725624
 H       -13.7217564611        0.8322220973        2.2005840378
 H       -13.2715064612        2.3177037494        1.2510208923
 H       -14.3912206448        1.6016436973       -0.7336099571
 H       -14.9970105386        0.0771608748        0.1189329779
 H       -10.5002542239       -0.4051827426        0.1179828819
 H        -9.7302829754       -2.0034598388        0.4396826539
 H       -10.3346548717       -1.5237706598        2.9137384703
 H       -11.0782573793        0.0025963299        2.3791199730
 H        -8.5968134191        4.3355667627        2.8643554989
 H       -10.2682219939        3.9051690485        3.4708193348
 H       -10.2378285195        5.7542020837        1.8834523808
 H       -11.2701235190        4.4555436495        1.4425074476
 H       -11.0964233733        7.6834956709       -0.6112159772
 H       -11.7830581013        7.7842972494       -2.1513870938
 H       -10.0390130285        9.5661183040       -2.1403423682
 H        -9.2502686781        8.3273449906       -2.9575737424
 H        -4.7003835023        7.5140864847       -0.7643821732
 H        -4.3719726678        8.8639097939       -1.8222540972
 H        -3.4144505862        7.0841707268       -3.0982613193
 H        -5.1164297292        7.0166372631       -3.6255670500
 H        -3.8263187534        1.8521419073       -4.5734846622
 H        -4.3687285598        2.9497750636       -5.9654453738
 H        -5.5326698891        1.6945086115       -5.3450365048
 H        -3.0807554947        5.4000401008       -4.6479384900
 H        -2.4652068722        3.6260685207       -4.6232700409
 H        -2.0018689643        4.8710984648       -3.3862679969
 H        -4.6572201409        3.0732027110       -1.4885543454
 H        -2.9685712218        3.1116319409       -1.5402955244
 H        -3.7408007003        1.9338175730       -2.5849178900
 H        -8.0761756884       11.2530329176       -1.8605256836
 H        -7.7023388375       10.2354534489       -3.2115899766
 H        -6.3327541098       10.8033864371       -2.2842851847
 H        -5.7504331506       10.3068772469        0.0049713861
 H        -6.3170511087        8.8091176331        0.7095428817
 H        -7.3592874446       10.2504084592        0.7351519803
 H       -11.2601208149        3.7877033058       -3.0421568003
 H       -11.2200422930        2.9026531045       -1.5721521170
 H        -9.6963590981        3.4391898975       -2.0894271321
 H       -12.8517539834        5.2211736094       -1.6704747376
 H       -12.4510154968        6.0507058232       -0.1809968309
 H       -12.6233178538        4.3487726213       -0.1564547333
 H       -10.7572966248        1.0165433799        4.2778119523
 H        -9.9160879707        2.3956407892        4.7532008655
 H        -9.3085718356        0.8120601352        5.1845267971
 H        -7.0026317750        0.9498003083        4.2605534837
 H        -7.3246229185        2.6527564281        4.0418660790
 H        -6.7055638533        1.6338177657        2.7021862726
 H       -14.0012119460       -3.2370560775       -0.8142880217
 H       -14.8686203536       -1.6694466698       -0.8953143326
 H       -14.5374262757       -2.5046429747        0.5769716170
 H       -12.6920949069       -1.9273272345       -2.7378984888
 H       -11.5852597348       -2.8133538356       -1.8303667787
 H       -11.2887203352       -1.1469511804       -1.9969514019
 H       -15.5761401624        0.1861043917        3.5438734049
 H       -15.8026974625        1.0032484959        5.1058022858
 H       -14.2226474299        0.8887614628        4.4178669166
 H       -17.6137463883        1.9707727864        3.1106619943
 H       -17.1266324848        3.6099480393        2.9626038767
 H       -17.3958813731        2.8838741723        4.6143908131
 Na       -7.5533808541        5.0169686126       -2.4198448891
