117

 C       -13.6658308207        2.3966086281        0.6270319390
 C       -12.6991077066        1.8067951996       -0.4511170338
 O       -12.0250619314        2.4701600923       -1.1715775608
 C       -12.5902569318        0.1693444236       -0.7658943634
 C       -11.0918792790       -0.2368277764       -0.6531126064
 O       -10.3145265404        0.1933220961       -1.4890928812
 C       -10.5856449268       -0.5052287538        0.7703418585
 C        -9.2347080986        0.0229286783        1.1859047584
 C        -8.1902018896       -0.6538134162        0.3983812400
 O        -8.3178201736       -1.4667530013       -0.5222127409
 C        -6.6674019090       -0.1080983464        0.4805937872
 C        -6.5052300773        1.1541455137       -0.4028204137
 O        -6.0918129566        2.1785169004       -0.0299172966
 C        -7.1511113315        1.1142985642       -1.8544875224
 C        -7.0709128957        2.4291711408       -2.5935445253
 C        -7.6943471883        2.2579388519       -4.0207450230
 O        -8.4967017859        1.4303520310       -4.3495315628
 C        -7.1298621666        2.9055049638       -5.2877259524
 C        -7.7803573845        4.3892998076       -5.2118154017
 O        -7.4716267002        5.1012322319       -4.3379174871
 C        -8.6225088140        5.0764819091       -6.2440736982
 C        -9.8386539558        5.7935292783       -5.6734733985
 C       -10.3738082761        5.1502152269       -4.4463401007
 O       -10.1630547336        3.8896711271       -4.3213392921
 C       -10.9153402423        5.8864175174       -3.2633969916
 C        -9.7520990563        5.7191700663       -2.1565668123
 O        -8.9456711021        4.8111550616       -2.1491477022
 C        -9.8226751070        6.5540444601       -0.8482902839
 C        -8.4150361075        6.6458997015       -0.1135485188
 C        -8.6170931243        7.1756442203        1.2756823907
 O        -9.4363145839        8.0761464894        1.4356287265
 C        -8.1642999007        6.3768900450        2.4463143184
 C        -9.5457723604        5.4664285477        2.7277377462
 O        -9.9224313752        4.7309153081        1.8239115641
 C       -10.2836192512        6.1534994298        3.8919414876
 C       -11.7075562650        5.6301292294        4.0369739869
 C       -11.9283668457        5.0745432660        5.5963836659
 O       -11.0280561476        4.4949832551        6.1324820649
 C       -13.3898456392        5.2351232952        6.1293422099
 C       -14.3125699919        4.6022674161        5.0851102464
 O       -14.6379533282        5.3056945079        4.1364055217
 C       -14.7603618283        3.0573876752        5.2900848823
 C       -13.4561294898        4.6196104533        7.4435705525
 C       -13.5694846754        6.7327257454        6.4194540828
 C        -6.9563011613        5.4566879666        2.0261825163
 C        -7.7306188820        7.4872562306        3.4712826703
 C       -11.0823975864        7.3494916642       -3.5376471251
 C       -12.2625344769        5.1857689642       -2.7930559524
 C        -5.5949386017        3.4122328283       -5.2237697085
 C        -7.4766389254        2.2432442945       -6.5601022850
 C        -6.5972057806        0.5141087128        1.9922162444
 C        -5.6812808399       -1.3229215404        0.2085588369
 C       -13.6646371606       -0.5604949672        0.0096785860
 C       -13.0640256086        0.0875277212       -2.3091079711
 H       -14.5758174344        2.5781457572        0.1203360902
 H       -13.2298502944        3.3202618205        0.9471169439
 H       -13.6978260747        1.6626298560        1.4594640228
 H       -10.4225297801       -1.6692827286        0.9069995959
 H       -11.2015877711       -0.3439333799        1.5944342106
 H        -8.9713823117       -0.2630608844        2.2715596524
 H        -9.2721075948        1.0665663205        0.9400769913
 H        -8.0325729160        0.7087847857       -1.5793695558
 H        -6.6911102868        0.3385768649       -2.3785204516
 H        -5.9528615082        2.7569672343       -2.6294933680
 H        -7.6562397198        3.2111562686       -2.1506476232
 H        -8.9655410816        4.2818369745       -6.9142359829
 H        -7.9885721010        5.5785974970       -6.9624400961
 H       -10.7688752156        5.7684001740       -6.3380222795
 H        -9.7114563321        6.9425286971       -5.4395418142
 H       -10.4420198455        5.8331423855       -0.1928331063
 H       -10.1354433177        7.5528350938       -0.8423650963
 H        -7.9075085630        7.4188733353       -0.6420476945
 H        -7.7787092144        5.7255590053       -0.2335893487
 H       -10.1704393201        7.2282259012        3.6985346392
 H        -9.7363930676        5.9675588726        4.8207736033
 H       -11.9142041597        4.7283692147        3.4485658551
 H       -12.4707135112        6.3261641687        3.8650210416
 H       -15.0971386762        2.8795723549        6.2819009116
 H       -13.8669765674        2.4328293020        4.8704574821
 H       -15.4311721878        2.8845802525        4.4497854791
 H       -14.4394431690        4.6072674815        7.7208784394
 H       -12.9257904014        5.1935185886        8.1987331517
 H       -13.3169347581        3.5879929232        7.6114169653
 H       -14.3323846102        7.1547086867        5.9194141823
 H       -12.6567187351        7.3321863227        6.0205393067
 H       -13.5190416184        6.9174883909        7.4346463902
 H        -6.7371748844        4.9153386759        3.0629820421
 H        -6.0527451250        5.9777637897        1.7003813585
 H        -7.3189376518        4.7581658968        1.3817505373
 H        -7.7060517576        7.1567159157        4.4978337239
 H        -8.4606666133        8.2238751054        3.3511151633
 H        -6.7528698664        7.6946310672        3.1774981294
 H       -11.5367282931        7.7003324232       -2.5666459997
 H       -11.7001149182        7.5780784996       -4.4057841828
 H       -10.0864113465        7.7276408395       -3.7373888449
 H       -12.3818048866        5.3262537480       -1.7381158238
 H       -12.0633577001        4.1088980181       -2.9800419062
 H       -13.1523994049        5.5437069777       -3.2465069859
 H        -5.2535346601        3.7782928331       -4.3258361772
 H        -5.4478472534        4.0298878355       -6.0515413847
 H        -5.0242979764        2.5293203420       -5.2811777678
 H        -6.8994878931        1.4069665135       -7.0014533683
 H        -7.3357672166        2.9929573044       -7.3616119111
 H        -8.5589742790        2.0535079470       -6.4880692569
 H        -5.5466090703        0.8741703219        2.0055343512
 H        -6.5341497706       -0.3304410700        2.7422799586
 H        -7.3070829644        1.3118897898        2.2374194239
 H        -5.7564742324       -2.0606145087        0.9634955101
 H        -4.6216990751       -0.9875837210        0.0951258229
 H        -5.9466100564       -1.5325143117       -0.7506469361
 H       -14.4646980177        0.1520431545        0.2562060179
 H       -13.3264633283       -0.9305122059        0.9634742615
 H       -14.1343431039       -1.3598355920       -0.5410013877
 H       -14.1400699879        0.2188922566       -2.3473831564
 H       -12.8562421941       -0.9270820923       -2.6163407743
 H       -12.4509821679        0.7941545362       -2.9859304848
 Na       -9.9938873987        2.1482577571       -2.9400201606
