117

 C       -15.1050289995        4.7453784159        4.5213868457
 C       -14.5891828105        3.4168521037        4.0118734509
 O       -13.4197233284        3.0848775440        4.1210156350
 C       -15.5774274021        2.3052710959        3.3402095106
 C       -15.1881389735        2.2602460827        1.8545025932
 O       -15.8860938076        2.9509225462        1.1547489245
 C       -13.9817847512        1.4830246441        1.3784426639
 C       -14.2193976306        0.7320981004        0.0689373432
 C       -12.8626034639        0.0162317129       -0.3814531213
 O       -11.8353602973        0.6441691282       -0.5748800448
 C       -12.8205234016       -1.4864092002       -0.5444501053
 C       -11.9168934044       -1.8656356910        0.7420345031
 O       -12.4046190091       -2.5870588811        1.5771314823
 C       -10.4364437400       -1.3341221313        0.8993341969
 C       -10.3581321760       -0.6271472726        2.2246418960
 C        -8.8841644289       -0.0221981810        2.3934259473
 O        -7.9122235738       -0.4801620324        1.8251753568
 C        -8.8897864591        1.3565018036        3.1716363444
 C        -9.4282307869        2.3960773039        2.0855439605
 O        -9.6221846469        2.0527935277        0.9482925526
 C        -9.7505399985        3.8510588892        2.5051109707
 C       -10.3342247337        4.6541924237        1.3939288375
 C        -9.7485192902        4.6254455920       -0.0269958368
 O        -8.5621260216        4.5804209321       -0.2752406646
 C       -10.8218216601        4.9225832894       -1.1627557970
 C       -10.2987166405        6.1513000196       -1.9590484553
 O        -9.4619881481        6.0655620249       -2.8541695369
 C       -10.8234423498        7.6128671991       -1.5654253045
 C        -9.7588808904        8.6603727203       -1.8585889353
 C        -8.6142966428        8.6228043378       -0.8528054903
 O        -8.7135052936        7.9205802861        0.1406213411
 C        -7.1741438285        9.3008958496       -1.2025860358
 C        -6.3470730939        8.1547076107       -1.9180748646
 O        -6.9882168675        7.4897486965       -2.7137453242
 C        -4.8434076924        7.8747399094       -1.7375506953
 C        -4.3956955491        6.8904986380       -2.7999500429
 C        -4.6181126237        5.4346252402       -2.3860138195
 O        -5.3361907571        5.1744324005       -1.4229014059
 C        -4.0521201569        4.2056284375       -3.1957382132
 C        -5.1941298447        3.6285409088       -4.1828379143
 O        -6.3957430701        3.7875487059       -4.0870420019
 C        -4.7353140526        2.5719452888       -5.2353943195
 C        -2.7401960412        4.4141270641       -4.0839215203
 C        -3.7500984444        3.0531747039       -2.1939037112
 C        -7.3653955742       10.4944835783       -2.1449859819
 C        -6.6107182192        9.7911715210        0.1216927909
 C       -10.7784196649        3.6252943098       -2.0671695978
 C       -12.2482147550        5.1938014829       -0.6889096342
 C        -9.7270893793        1.3648119986        4.4596771400
 C        -7.4021814412        1.7008940880        3.4169939278
 C       -14.1910753218       -2.1874416014       -0.5065338726
 C       -12.0214829190       -1.7834007382       -1.8423264297
 C       -15.2500213910        0.9058591568        4.0515783086
 C       -17.1080290202        2.6201521841        3.6091911409
 H       -14.3275334450        5.4818066833        4.5132043733
 H       -15.5219184683        4.7667975508        5.4850281539
 H       -15.9474207533        5.0279814518        3.8625747122
 H       -13.7662794388        0.7294537097        2.0983669751
 H       -13.1140491727        2.2189676802        1.3183045738
 H       -14.4814087239        1.4302698167       -0.7253005533
 H       -15.0039540882        0.0236836072        0.3006123193
 H       -10.1443594776       -0.6952122457        0.1084595866
 H        -9.8769664757       -2.2683845097        0.8909565739
 H       -10.4529191773       -1.3656638108        3.0155275688
 H       -11.1733388204        0.1321967289        2.3467627059
 H        -8.8310326827        4.3312841203        2.9856979173
 H       -10.4781637227        3.7721557172        3.2915461777
 H       -10.2123572501        5.7402346998        1.6121143054
 H       -11.3864468810        4.4296931855        1.4030419118
 H       -11.1611597937        7.7110721546       -0.5463048190
 H       -11.7291620652        7.8083335350       -2.1242128485
 H       -10.2772646685        9.6484326687       -1.9157027935
 H        -9.3219256067        8.5735018143       -2.8081793285
 H        -4.7436171401        7.4140496307       -0.6968808270
 H        -4.3055691415        8.7686500948       -1.7231986492
 H        -3.3511467372        6.9825216416       -2.9178668120
 H        -5.0173076353        7.0503798674       -3.7167376416
 H        -3.8786917362        2.1080162075       -4.7143832486
 H        -4.4222558418        3.1321512206       -6.0862849161
 H        -5.6117085079        1.8703180852       -5.3702915584
 H        -2.9182307814        5.1691322140       -4.8534416210
 H        -2.5788004684        3.4454177522       -4.5242783365
 H        -1.8048848460        4.6685363856       -3.5789361992
 H        -4.3738425075        3.1562240402       -1.3179238483
 H        -2.7020099795        3.1259484632       -1.8210289196
 H        -3.7770451291        2.1575508311       -2.6889195782
 H        -8.0326388535       11.2292427171       -1.6879112040
 H        -7.9230960234       10.2302479746       -2.9830037844
 H        -6.4502626740       10.9148370980       -2.5200150163
 H        -5.8504109825       10.5944697617       -0.0256341930
 H        -6.1430317403        8.9455963490        0.5868518946
 H        -7.4066016950       10.1526825662        0.7662314330
 H       -11.5605188506        3.7422856256       -2.8058201110
 H       -11.0257000696        2.7239169315       -1.5332883505
 H        -9.7824518915        3.5138643434       -2.4554191727
 H       -12.8141142843        5.6252296309       -1.5335505019
 H       -12.3443096386        5.9098517094        0.1825438056
 H       -12.7373239573        4.3321284750       -0.3590341317
 H       -10.7869835764        1.3093446866        4.3046138816
 H        -9.6330063113        2.3470207723        4.9827573538
 H        -9.4135910223        0.5579108411        5.1418310180
 H        -6.8496389787        0.9518206170        3.9832087991
 H        -7.1645900113        2.6688470800        3.8815528844
 H        -6.9514977270        1.6862557848        2.4520402907
 H       -14.0787936358       -3.2374097978       -0.7771774133
 H       -14.8980895004       -1.6617128692       -1.0819242934
 H       -14.6369098994       -2.3029787782        0.4875671725
 H       -12.4857709552       -1.4111937278       -2.8046360741
 H       -11.8950961199       -2.8482421430       -1.9486176343
 H       -11.0073813072       -1.3636880904       -1.8733715205
 H       -15.6958546192        0.1446709902        3.4513113542
 H       -15.6428336247        0.8948318907        4.9985755864
 H       -14.1616579650        0.7167483387        4.1301139556
 H       -17.7319268249        1.7450593896        3.4472380885
 H       -17.5039222115        3.4640019182        2.9358415292
 H       -17.2590832384        2.9468585333        4.6712660694
 Na       -7.4880960624        5.0105401342       -2.3703305288
