117

 C       -13.6125824933        2.2529535752        0.6174259843
 C       -12.6869327099        1.7795642444       -0.4111915703
 O       -11.9055532531        2.5323325037       -0.9953793061
 C       -12.7359738791        0.3017753150       -0.7778066133
 C       -11.1722073673       -0.0180943971       -0.6891243452
 O       -10.3933729448        0.0915929378       -1.6006756875
 C       -10.7675144736       -0.4113285627        0.7749822483
 C        -9.3421047563        0.0787740439        1.0400157554
 C        -8.2021580502       -0.6871228081        0.3853313564
 O        -8.4088794028       -1.5490918729       -0.4083051992
 C        -6.6713744451       -0.0930802882        0.5555784495
 C        -6.6705259827        1.0989738384       -0.3134800252
 O        -6.1706727825        2.1867101408        0.1130038746
 C        -7.1241354570        0.9461331810       -1.8481514966
 C        -7.0594898985        2.2326058810       -2.5480788306
 C        -7.5250028282        2.0969810643       -4.0115208946
 O        -8.5030132412        1.4131558963       -4.0817093267
 C        -7.0796127838        3.0043743251       -5.2878655962
 C        -7.6670671381        4.5091254009       -5.1685837835
 O        -7.5020922943        5.1614763284       -4.1251188876
 C        -8.6500009035        4.8757281021       -6.4100151508
 C        -9.7246558156        5.7161389483       -5.7883126742
 C       -10.2560445032        5.0021528520       -4.4711579508
 O       -10.1322306041        3.7972544132       -4.4104276583
 C       -10.8696624068        5.9145985285       -3.2214774904
 C        -9.8392296220        5.6261773065       -2.0993314279
 O        -9.0652982989        4.7157071454       -2.2301702170
 C        -9.8585381179        6.4954658575       -0.8198253268
 C        -8.4101557033        6.6311887481       -0.2899484267
 C        -8.7080500423        7.1357078613        1.1234914720
 O        -9.5732919453        7.9788825296        1.3350900670
 C        -8.0527572247        6.3115959297        2.3665946090
 C        -9.4246199618        5.6691069107        2.7000407270
 O        -9.9739077034        4.9797269607        1.8503334697
 C       -10.1278850180        5.9658003437        3.9253476299
 C       -11.5360796893        5.6068351850        3.9970194771
 C       -11.9498147054        5.0741699087        5.4910147603
 O       -11.0659112074        4.5642322627        6.0923430644
 C       -13.3216046753        5.4407753576        6.1119184725
 C       -14.3087524455        4.7373139311        5.0694594314
 O       -14.5901734407        5.1735427283        3.9519525453
 C       -14.8485411705        3.3640319980        5.4189328816
 C       -13.4070345955        4.7158943197        7.5163641967
 C       -13.5220485518        7.0258672001        6.0988411969
 C        -6.8840074429        5.2585871917        2.0784568141
 C        -7.5689416282        7.3823162572        3.4258477742
 C       -11.1112659048        7.4540196174       -3.6157598613
 C       -12.2118323321        5.3425231904       -2.7010386206
 C        -5.4424040833        3.1286086411       -5.1358924857
 C        -7.4690781195        2.2743664875       -6.4764272843
 C        -6.4180577777        0.5268409608        2.0013063760
 C        -5.6095584805       -1.0927308667        0.1637517253
 C       -13.6542155176       -0.6212601356        0.1291116719
 C       -13.2873381367        0.1968979630       -2.2992165821
 H       -14.6101700622        2.0708139523        0.2322540498
 H       -13.4723447133        3.3188479826        0.6968092466
 H       -13.3727618819        1.6993054702        1.4918226247
 H       -10.8528714881       -1.4296497036        0.9769503626
 H       -11.2506318117       -0.0038733682        1.6229059400
 H        -9.1542902963        0.0382568901        2.0903366379
 H        -9.4282769926        1.1411738264        0.6169683084
 H        -8.0989469200        0.5536974291       -1.6121780635
 H        -6.6943500794        0.0849493834       -2.3329971879
 H        -6.0768831917        2.6490494169       -2.5291820511
 H        -7.8141596571        2.9659213471       -2.2044670136
 H        -8.8275948390        4.0472224421       -7.0953323841
 H        -8.0683472029        5.4948275735       -7.1141057259
 H       -10.6450578096        6.1331047856       -6.4002669624
 H        -9.2081381292        6.5644407067       -5.4923159419
 H       -10.3471695268        5.9094832478       -0.0192432008
 H       -10.1945992680        7.5132795350       -0.8997482559
 H        -7.7868191054        7.2504350528       -0.8650207871
 H        -7.9212015735        5.6221664152       -0.2902390813
 H       -10.0476163494        7.0583737865        4.0882706862
 H        -9.6186927823        5.5260045743        4.6994068919
 H       -11.8992529893        4.8438642617        3.3008243285
 H       -12.1161801241        6.5249563273        3.8597330234
 H       -15.7294664918        3.5990963559        5.9511044134
 H       -14.1527436189        2.7102717199        5.8972064724
 H       -15.0002959144        2.8977677288        4.3548810611
 H       -14.4361622314        4.5764006824        7.7381216098
 H       -12.9978255715        5.1295442781        8.3602062640
 H       -13.1863530482        3.6494247666        7.4904375082
 H       -14.3551645424        7.4766867535        5.3927330720
 H       -12.6575019591        7.6971900499        5.9864084226
 H       -13.6904173448        7.1637533668        7.2289826384
 H        -6.4056956251        5.0460151063        3.0176521585
 H        -6.2206958274        5.7387178923        1.4570187018
 H        -7.2819411281        4.3526145431        1.5908536875
 H        -7.7081735093        6.9038039810        4.3845674668
 H        -8.1692445648        8.2364424319        3.3587448714
 H        -6.5308684323        7.4855867349        3.2776516202
 H       -11.9304895959        7.7536540076       -2.9139899002
 H       -11.3950370362        7.5582995942       -4.6136897955
 H       -10.1339605701        7.9796585680       -3.4401316603
 H       -12.5235428844        5.7805778406       -1.7728140385
 H       -12.0712677733        4.2678407403       -2.6460515332
 H       -13.0255723071        5.6005663740       -3.3678593777
 H        -5.0259546562        3.5849901770       -4.2331939180
 H        -5.0773863745        3.6109237596       -6.0449887004
 H        -4.9946881934        2.1296763872       -5.0420739332
 H        -6.8559255342        1.3590292563       -6.5188097800
 H        -7.1246237566        2.6932577515       -7.4305750467
 H        -8.5588435369        2.0425339338       -6.4421145932
 H        -5.2531712449        0.5112527008        2.1540617392
 H        -6.7289393854       -0.2233022102        2.7370694618
 H        -6.8991893026        1.5110613386        2.2033633493
 H        -5.6709921062       -1.9816399985        0.7576691042
 H        -4.6855050077       -0.6412763902        0.2561698952
 H        -5.6926300956       -1.0760057101       -0.9353351315
 H       -14.5591246794       -0.1200175023        0.5395400394
 H       -13.2208321430       -1.1092200071        0.9269462666
 H       -13.9761802302       -1.4720957619       -0.5306096005
 H       -14.3826063451        0.1501223745       -2.1781173155
 H       -12.9880214217       -0.7292222113       -2.8269265777
 H       -12.9831782326        1.0930328444       -2.8011703253
 Na      -10.1840426286        2.1035320775       -2.9069643019
