117

 C       -14.4162546258        5.1544353346        4.0438945082
 C       -14.4197617267        3.9109446509        3.1846913950
 O       -13.5373916946        3.7405121565        2.3569578920
 C       -15.5632076330        2.9267979696        3.3943319254
 C       -15.7533536423        2.0314709168        2.0415195963
 O       -16.8696929446        1.9938410453        1.5440415113
 C       -14.6805488764        1.1571686363        1.4478951477
 C       -14.9616048740        0.4803546996        0.1029327626
 C       -13.6751112709        0.2540744396       -0.6342317821
 O       -13.1189562804        1.0830624969       -1.3118240807
 C       -12.8159426565       -1.0847762210       -0.2181391037
 C       -11.9235034795       -0.7262704756        1.1716868340
 O       -12.3287591790       -1.2160885621        2.1874399081
 C       -10.7334478456        0.2345316563        0.9797504112
 C        -9.3893689395       -0.4031883181        1.3638339486
 C        -8.2090159908        0.3985530098        1.8936336436
 O        -7.0575470403        0.2027082467        1.5272960739
 C        -8.4661101386        1.6399706270        2.8793396405
 C        -8.7651690440        2.8169760135        1.8696667566
 O        -9.1328310365        2.6197338774        0.7422870084
 C        -8.7154254451        4.2944557993        2.3865668554
 C        -9.7602580982        5.1329869154        1.5478335699
 C        -9.5143950567        4.8135560141        0.0343157300
 O        -8.3692489539        4.9436567832       -0.3564078590
 C       -10.8357644059        4.9139656238       -0.8931970209
 C       -10.4053598482        5.8099454778       -2.1169482433
 O        -9.7248141913        5.2668069705       -2.9737582900
 C       -10.9299357525        7.2766395056       -2.3045331354
 C        -9.6852506810        8.1328843928       -2.4917384087
 C        -8.8327187634        8.1223596096       -1.2055597939
 O        -9.3019872811        7.6961472839       -0.1426193839
 C        -7.3116625572        8.5717222101       -1.2762180649
 C        -6.6334487019        7.5663013829       -2.2454302399
 O        -7.2159805040        7.0358141820       -3.1782632504
 C        -5.0799780296        7.3878212406       -2.0538728292
 C        -4.4797095561        6.2370978091       -2.8059885426
 C        -4.8118212681        4.9078366504       -2.0955006490
 O        -5.5607861508        4.8209441745       -1.1382708341
 C        -4.0437694297        3.6980767296       -2.5946113203
 C        -5.1505402187        2.7612736476       -3.3999376684
 O        -6.3023330323        3.0168850546       -3.3455301906
 C        -4.6494883512        1.4365293202       -4.1617839800
 C        -2.9023425896        3.9692222709       -3.6831617561
 C        -3.4978429126        2.8870075752       -1.3845038627
 C        -7.2218070970        9.9725356218       -1.9676883200
 C        -6.6962930640        8.5560613670        0.1778971345
 C       -11.1741067904        3.4656284924       -1.2712650735
 C       -12.0779375630        5.5189171844       -0.2077212682
 C        -9.6947456680        1.5320561734        3.8044940471
 C        -7.1677220401        1.8791949424        3.6261836738
 C       -13.6507734709       -2.2875886430       -0.0077097005
 C       -11.8361763768       -1.4847367867       -1.3668684897
 C       -15.1184949428        2.0794610615        4.6151681005
 C       -16.9526983625        3.5885108434        3.6542555673
 H       -13.4122173292        5.6624117167        3.9958693677
 H       -14.7674924293        5.0500394688        5.1399919120
 H       -15.0271394454        5.8456791832        3.4916886385
 H       -14.4764851921        0.4544403292        2.2190874943
 H       -13.7156570125        1.7612818563        1.3940668070
 H       -15.7539514511        1.0745387355       -0.4157947329
 H       -15.5110509225       -0.4417997793        0.1889244957
 H       -11.0444661128        1.0606286842        1.6714861735
 H       -10.7941001450        0.6394099450       -0.0321764233
 H        -8.9562118016       -1.0181414183        0.6461189357
 H        -9.6162486453       -1.0525179620        2.2741726840
 H        -7.7518850840        4.6273092226        2.2464983192
 H        -8.9471183592        4.2601299205        3.4372322981
 H        -9.7162358748        6.2525902520        1.7259649199
 H       -10.7549370258        4.8417391392        1.8004346805
 H       -11.5005790117        7.5170265011       -1.4470184093
 H       -11.5603875899        7.2320744942       -3.2556800076
 H        -9.9797481521        9.1992017121       -2.7351025109
 H        -9.0928495742        7.7680956703       -3.2863398578
 H        -4.6664921277        7.3988581711       -1.0355722814
 H        -4.7978923746        8.3034730307       -2.5813271685
 H        -3.3940110945        6.1997083153       -2.9436989467
 H        -4.7343135598        6.1742576676       -3.9192297095
 H        -4.0158603794        0.8515275437       -3.5041258494
 H        -4.1776345514        1.8192923032       -5.0731437794
 H        -5.5323621708        0.8696597934       -4.3545428076
 H        -3.1907013426        4.5529949732       -4.5872020415
 H        -2.3300447191        3.0197947875       -3.9437882967
 H        -2.1331097922        4.5124381010       -3.1256447742
 H        -4.3077235103        2.2808271001       -0.9021285602
 H        -3.1021583898        3.5793327734       -0.6917489448
 H        -2.7772649901        2.0468365235       -1.7044078609
 H        -7.5647791892       10.7723820908       -1.3200447287
 H        -7.7719192421       10.2655628141       -2.9304834787
 H        -6.1632729073       10.2540158007       -2.1827541571
 H        -5.7203172361        8.2369139688        0.1254377320
 H        -7.3630553253        7.9591520443        0.8092776419
 H        -6.6148572141        9.5678131506        0.5675917458
 H       -12.2135672006        3.5368008553       -1.6031362085
 H       -11.1068669678        2.8493598558       -0.4122638926
 H       -10.6577085847        3.1462343014       -2.1540351128
 H       -12.6999465821        5.7764567607       -1.0463838813
 H       -11.9146684660        6.3615707167        0.4059053418
 H       -12.6372552024        4.8043833049        0.4434277372
 H       -10.5087883699        2.1609156713        3.4187657126
 H        -9.6158247905        1.9093463691        4.8298543033
 H       -10.1006100430        0.5863504615        3.8989815530
 H        -6.8795453287        0.9554206862        4.0583483614
 H        -7.2840127549        2.6784072801        4.4214405189
 H        -6.3536725744        2.2332225786        2.9691479320
 H       -13.0742404828       -3.1936268085        0.1167052056
 H       -14.2647585392       -2.5889316026       -0.8593381428
 H       -14.3401412055       -2.2943359707        0.8673298342
 H       -12.3255661372       -1.9902036675       -2.1634528614
 H       -10.9177931528       -1.8974023209       -1.0057795264
 H       -11.5344006707       -0.6498883539       -1.9560470955
 H       -15.8210380900        1.2260672772        4.5957551695
 H       -15.3670024255        2.6348117561        5.5226776995
 H       -14.1588788883        1.7241722584        4.6774124583
 H       -17.7037312393        2.7972677134        3.8047730660
 H       -17.3462658989        4.2056170441        2.9482829825
 H       -17.0654278984        4.1288829746        4.5591320879
 Na       -7.6873111635        4.7779563687       -2.5295695026
