117

 C       -14.2636326065        5.1819660117        3.7698657492
 C       -14.4169545183        3.9447045226        2.9564535814
 O       -13.6700620713        3.8140865400        2.0118795837
 C       -15.5773033830        3.0180728165        3.3189664813
 C       -15.9323655818        1.9735759620        2.0988819949
 O       -17.0257123986        1.9116377591        1.6149055042
 C       -14.7198735823        1.1385257390        1.7039204797
 C       -14.9038176510        0.5481646255        0.2761774709
 C       -13.5535818204        0.2367864544       -0.5015924846
 O       -13.2105043820        1.0131971692       -1.3767673333
 C       -12.6246751495       -0.9924795397       -0.1639748039
 C       -11.9195936884       -0.5828775163        1.0863091037
 O       -12.3607034422       -0.8079036261        2.2247238022
 C       -10.6526824539        0.3146247362        0.9964051006
 C        -9.4443938200       -0.4472185789        1.5292144536
 C        -8.2181647715        0.4141284194        1.9204017046
 O        -7.1797173078        0.1474658481        1.3623131999
 C        -8.4345502953        1.6011233556        2.9104142182
 C        -8.8171630244        2.8404495303        1.8577868701
 O        -9.3128331849        2.5842574186        0.7726153762
 C        -8.7762849219        4.3347452632        2.3720720330
 C        -9.8528505857        5.0463393820        1.6472865173
 C        -9.6345178996        4.9849965245        0.1747530847
 O        -8.4915481312        4.9672520955       -0.2557747928
 C       -10.8752937612        5.0968489746       -0.8618053046
 C       -10.4402448445        5.8235129644       -2.1607576780
 O        -9.7184405552        5.2980787656       -2.9974515256
 C       -11.0174760535        7.2994170129       -2.4458388480
 C        -9.7596250733        8.1690905629       -2.5667319185
 C        -8.8932262202        8.0175657157       -1.2865587761
 O        -9.3042402353        7.5454536645       -0.2826268508
 C        -7.3715320283        8.5209074843       -1.3671981080
 C        -6.5136436383        7.4315166926       -2.2070137139
 O        -7.0435632976        6.8848019468       -3.1561022802
 C        -4.9853270484        7.3084814358       -1.9739641344
 C        -4.4925563562        6.2166425123       -2.8397009750
 C        -4.7680135929        4.8692842491       -2.1779195417
 O        -5.6357412240        4.7865522870       -1.3271030677
 C        -3.9897390076        3.6100024768       -2.5625601428
 C        -5.1340415512        2.6618766556       -3.3621161546
 O        -6.3014589019        2.9518590865       -3.5840931483
 C        -4.6168609919        1.2876853908       -3.8197138655
 C        -2.8223033057        3.8419644171       -3.5665681303
 C        -3.5294670171        2.7774218133       -1.3344577040
 C        -7.1895115832        9.9081999388       -2.0421386799
 C        -6.8699399508        8.6412145868        0.0968229221
 C       -11.1550888324        3.5731922921       -1.3852966401
 C       -12.0717159227        5.6771109220       -0.0513865818
 C        -9.4985812509        1.3375840763        3.9514775967
 C        -7.0894739574        2.0843488082        3.5473283210
 C       -13.5758545081       -2.1735561591        0.2610821407
 C       -11.6745334370       -1.2321411902       -1.3852803577
 C       -15.0271431175        2.0928837912        4.4921598331
 C       -16.8352864020        3.7704444686        3.7292166119
 H       -13.2288256933        5.4788999581        3.8470365384
 H       -14.5865960401        5.0113123146        4.7636822913
 H       -14.8307947291        6.0236760371        3.3122515347
 H       -14.5434128293        0.2756845822        2.4035595538
 H       -13.8637011684        1.7275342087        1.8040479181
 H       -15.4437133247        1.2208135847       -0.3671729278
 H       -15.6174915952       -0.2797331115        0.3681196396
 H       -10.9526210104        1.1653402068        1.5568738681
 H       -10.4863803380        0.6176996661       -0.0380412725
 H        -8.9740216728       -1.1431754018        0.7433059321
 H        -9.7250435158       -1.0229017718        2.3777958487
 H        -7.7079672793        4.7487430755        2.1222612033
 H        -8.9648049219        4.3709179231        3.4346373394
 H        -9.8351919698        6.0977223296        1.8873173224
 H       -10.8491790348        4.6676430486        2.0141623145
 H       -11.5732145310        7.6241403049       -1.5179526129
 H       -11.6032220689        7.3403136629       -3.3108631924
 H       -10.0689398880        9.1931820048       -2.6709647388
 H        -9.1138100070        7.9103729361       -3.4762562824
 H        -4.8483556877        6.9692614486       -0.9297837371
 H        -4.4507510375        8.2717613656       -2.1216547236
 H        -3.4893818521        6.2745308785       -3.2414969137
 H        -4.9906441030        6.0563928938       -3.7751728910
 H        -4.0955084980        0.8243236040       -2.9535246197
 H        -3.9376110562        1.4619406357       -4.6303169335
 H        -5.5032715466        0.6502682228       -3.9713547833
 H        -3.2421545751        4.2418941427       -4.4914590767
 H        -2.4530979370        2.8550142735       -3.7565111941
 H        -1.9503199115        4.4623946464       -3.2802742072
 H        -4.3054885790        2.5552417001       -0.6372273097
 H        -2.6986154212        3.3327216148       -0.7640321189
 H        -3.1271950677        1.8542124850       -1.6741130759
 H        -7.8040846603       10.7535378516       -1.6819213466
 H        -7.5505282601        9.9194319787       -3.0264708443
 H        -6.1592974003       10.2083590018       -2.1636255686
 H        -5.7597011254        8.8742663301        0.1033966822
 H        -7.1840982979        7.7081559556        0.5462767734
 H        -7.3818929954        9.4409601462        0.6271129996
 H       -12.1565424177        3.3997532235       -1.8079108282
 H       -10.9814905077        2.9283750844       -0.5085870615
 H       -10.3999327237        3.4168261836       -2.1717742251
 H       -12.9990197589        5.7147735899       -0.6138675664
 H       -11.8026175799        6.6693146605        0.3812934669
 H       -12.2469077311        5.0870843347        0.7832075082
 H       -10.2070696202        2.0849900227        4.2280155102
 H        -8.9850320924        1.1634891487        4.8880840123
 H       -10.0384441533        0.3728354662        3.7591726256
 H        -6.7930332805        1.4126741836        4.4112905792
 H        -7.1443327120        3.1130516897        3.8543947063
 H        -6.3079184339        2.0343743519        2.7809338080
 H       -13.2070530541       -3.2101526807        0.1135506028
 H       -14.5337689386       -2.1559462442       -0.2460201785
 H       -13.8183570106       -2.1925791859        1.3069824002
 H       -12.2486775223       -1.2383863458       -2.3176324838
 H       -11.0056258147       -2.0531558190       -1.1565292125
 H       -10.9905395283       -0.4115841933       -1.6522110163
 H       -15.7465624765        1.3603116701        4.8505904646
 H       -14.7509173914        2.7464639106        5.3206485951
 H       -14.0382849829        1.5644967463        4.1988337277
 H       -17.6761318454        3.1834873392        3.8755225293
 H       -17.1925279632        4.5882875920        3.0121981033
 H       -16.8059072623        4.2933792748        4.7073027780
 Na       -7.6829511197        4.4713385540       -2.4639645305
