117

 C       -14.3394339519        5.1883782777        3.9393435085
 C       -14.4416264050        3.9601061356        2.9763564439
 O       -13.5506410525        3.7470831389        2.1524468820
 C       -15.6484004539        2.8989642938        3.3570862285
 C       -15.9226008286        1.9584617378        2.1178369811
 O       -16.9890523554        1.9898238436        1.5798883473
 C       -14.6609865488        1.1470537348        1.5738379137
 C       -14.8902928781        0.4845194821        0.2035099950
 C       -13.5668484738        0.2962253387       -0.5425186711
 O       -13.1604113655        1.0754275110       -1.3851513066
 C       -12.7415288144       -1.0260600390       -0.2321425695
 C       -11.9406897491       -0.5783911896        1.0996933603
 O       -12.3001432429       -0.9949014531        2.1793205380
 C       -10.6835557579        0.3166651192        1.0669258336
 C        -9.4796348424       -0.5256924075        1.4541753983
 C        -8.2185115983        0.4274334699        1.8254536798
 O        -7.0943618869        0.1839798885        1.4541600726
 C        -8.4579024038        1.6606153945        2.8064888977
 C        -8.8355458090        2.8502787098        1.9339247192
 O        -9.2004094924        2.6376539488        0.7925877252
 C        -8.7031236747        4.2884731693        2.3872297909
 C        -9.8208132175        4.9921185904        1.6741793971
 C        -9.5606519288        5.0003304196        0.0973161893
 O        -8.4182081375        4.9103718731       -0.3184457589
 C       -10.8295041418        4.9560675043       -0.8534092731
 C       -10.4781418623        5.7873453807       -2.1118110228
 O        -9.6927210727        5.3610767955       -2.9539712097
 C       -10.8899276012        7.2054975032       -2.3832490157
 C        -9.6710843460        8.0978547090       -2.5390620511
 C        -8.8159672934        8.0505990761       -1.2821768223
 O        -9.2969375744        7.6125605881       -0.2332492213
 C        -7.3191272012        8.5136958213       -1.2928013440
 C        -6.5887566598        7.5454630841       -2.2510464033
 O        -7.1601273753        6.9520364563       -3.1870784198
 C        -5.1248233390        7.3281756686       -2.0390973462
 C        -4.5380865893        6.2309378114       -2.8426059926
 C        -4.7705318400        4.8563866789       -2.1628355423
 O        -5.5982928636        4.7964632114       -1.2769262948
 C        -4.0408096052        3.5275520702       -2.6005434974
 C        -5.0746064246        2.6983778872       -3.2947067401
 O        -6.2485310144        3.0932510141       -3.4099386857
 C        -4.5758287178        1.4212075305       -3.9382587281
 C        -2.9933406753        3.9611068121       -3.6358056632
 C        -3.5628839351        2.7800536866       -1.3768451593
 C        -7.1806432938        9.8911684806       -1.9416813480
 C        -6.7521741494        8.6157194692        0.1293863383
 C       -11.1744636334        3.5157723741       -1.3637029347
 C       -12.0121079788        5.5658900045       -0.1093919023
 C        -9.6238767387        1.4357330876        3.8521287221
 C        -7.1541725262        2.0793253617        3.5651335716
 C       -13.5760991916       -2.2772131698        0.0957343425
 C       -11.8112431331       -1.3994885225       -1.3466956979
 C       -15.1153129129        2.1234566970        4.5699828022
 C       -16.8389573417        3.6693190201        3.7186505093
 H       -13.3052892053        5.5117258366        4.0834581921
 H       -14.7285145025        4.9065836973        4.9224106856
 H       -14.8831351937        6.1196751279        3.5220384453
 H       -14.3327995113        0.4152906658        2.3345790098
 H       -13.8351686938        1.8118217460        1.4965857488
 H       -15.5336546725        1.1157320857       -0.3973186824
 H       -15.5107987670       -0.4092301810        0.2419107056
 H       -10.9626339677        1.0593577340        1.8261511454
 H       -10.5306461724        0.8367765371        0.1260574697
 H        -9.0610256486       -1.0450887443        0.5864240913
 H        -9.7107952442       -1.2505015417        2.2431129871
 H        -7.7847170799        4.6128260712        2.0442762096
 H        -8.7870220400        4.4123980576        3.4475666491
 H        -9.8697492936        6.0366258084        2.0606497136
 H       -10.8122552050        4.5341963485        1.9430434638
 H       -11.5836395685        7.5359329283       -1.6123191748
 H       -11.3647804017        7.1464658479       -3.3855603574
 H       -10.0154349479        9.1075091608       -2.8571843099
 H        -9.0057140850        7.6807861725       -3.3390025728
 H        -4.9547711730        7.0532382257       -1.0185654644
 H        -4.6171939344        8.3434511508       -2.2535712281
 H        -3.3899046057        6.3164046669       -3.0805800140
 H        -4.8498642715        6.0600083115       -3.8871104840
 H        -4.0225713586        0.8890710990       -3.2580225144
 H        -3.9658059114        1.8334065584       -4.7985561457
 H        -5.4258365897        0.8267853451       -4.2194893493
 H        -3.4351682966        4.6972973211       -4.3729665573
 H        -2.4938011544        3.1436933391       -4.1479342231
 H        -2.1574586895        4.4861639937       -3.0607466569
 H        -4.4720954590        2.4015684247       -0.7597010225
 H        -3.1091767794        3.5682452618       -0.7877165669
 H        -2.9477221846        1.8967800914       -1.4991310042
 H        -7.5929389453       10.7628705093       -1.4100212609
 H        -7.7518116351       10.0173092614       -2.9049750336
 H        -6.1346458896       10.1459060883       -2.2520027714
 H        -5.6799272445        8.4125021865        0.1172591764
 H        -7.3685026464        7.9558403827        0.7435796734
 H        -6.8358907798        9.6193023517        0.5009888353
 H       -12.2288106594        3.5750164000       -1.5499559977
 H       -10.9765336159        2.7354437032       -0.5927944549
 H       -10.7362217560        3.3633588457       -2.3386567155
 H       -12.7627660667        5.7007804213       -0.8466593790
 H       -11.7229782234        6.4953744422        0.2853969470
 H       -12.4245517896        5.0171614143        0.7520506902
 H       -10.4131916110        2.1887929449        3.8455755680
 H        -9.2995617482        1.4994238136        4.8431797107
 H       -10.1012256986        0.4521255921        3.7760959384
 H        -7.0052397485        1.2712850107        4.3080898762
 H        -7.3589066643        2.9982757310        4.1047499768
 H        -6.2043391136        2.2458877355        2.9775796510
 H       -13.1027360406       -3.2399537998       -0.0027821476
 H       -14.5290317877       -2.4339178362       -0.5078153473
 H       -13.9100051557       -2.2702284501        1.1056074050
 H       -12.3537786960       -1.7404753832       -2.1828133760
 H       -11.0181805185       -2.0171595499       -0.9192392576
 H       -11.2975226379       -0.5954963735       -1.8479957129
 H       -15.6711671476        1.2470788437        4.8062168501
 H       -15.1590952049        2.8124155604        5.4624261394
 H       -14.0551428483        1.8348767215        4.4491903110
 H       -17.7312927759        3.0467565444        3.8964549944
 H       -17.1727938728        4.4295046849        3.0607185278
 H       -16.7698589798        4.1288681155        4.6439704514
 Na       -7.7273975113        4.6361760598       -2.5187145946
