117

 C       -14.1593971515        5.3024833665        3.5137832655
 C       -14.3599491337        4.0200482826        2.7107676912
 O       -13.8361807112        3.8851656523        1.6258873388
 C       -15.4375606309        2.9844267366        3.2932741604
 C       -15.9028472592        1.9318736943        2.2165097360
 O       -16.9864030864        1.9487648078        1.7224725969
 C       -14.7946686515        1.0515352970        1.6353968619
 C       -15.0530174127        0.5692799420        0.2132921187
 C       -13.7132678646        0.2898326663       -0.4708766467
 O       -13.3287589973        1.0695959397       -1.3221622252
 C       -12.7546187892       -0.9389555468       -0.0875973714
 C       -11.9294164031       -0.5427628143        1.2701627212
 O       -12.5455393288       -0.6338960006        2.3302093887
 C       -10.5480528335        0.1315507348        1.1213061711
 C        -9.4210701596       -0.5984533029        1.7953155470
 C        -8.1589317957        0.3665977143        1.9776826711
 O        -7.1647395089        0.1506773509        1.3545063714
 C        -8.1682676997        1.7223510152        2.8922469650
 C        -8.7981353843        2.8878033923        1.9947123392
 O        -9.1468954311        2.6708047899        0.8349178490
 C        -9.0307943973        4.3328270499        2.4978382813
 C        -9.9543770861        5.1487311597        1.6415496138
 C        -9.7669953313        5.1053843018        0.1205822987
 O        -8.6708223798        4.9363922690       -0.3438476908
 C       -10.9949972990        5.1890436058       -0.9581781552
 C       -10.5504794490        5.9129448235       -2.2520605743
 O        -9.7301956223        5.4040420637       -2.9846073843
 C       -11.0012150195        7.3519834519       -2.5235959153
 C        -9.7739331655        8.2592352083       -2.6352208028
 C        -8.8954979158        8.1258605637       -1.3950035276
 O        -9.3766526214        7.6824094891       -0.4005279122
 C        -7.3732432138        8.5559675705       -1.4954588520
 C        -6.5226685739        7.2982822578       -2.1995533805
 O        -7.1268055036        6.5217637405       -2.9089911143
 C        -4.9940228746        7.3038470052       -1.9992205057
 C        -4.1241484409        6.1286927337       -2.5520202470
 C        -4.5908922927        4.7674743456       -2.1263597831
 O        -5.5908903894        4.7346100172       -1.4501534348
 C        -3.9705203766        3.3544330139       -2.6010082864
 C        -5.0356241504        2.4560033789       -3.2831544361
 O        -6.1777007777        2.8192376965       -3.5795815995
 C        -4.6310826791        1.0294769163       -3.6197079652
 C        -2.8173213039        3.4953007275       -3.6413075241
 C        -3.6210400148        2.6975098159       -1.2333754936
 C        -7.2215735495        9.8402479871       -2.2942649763
 C        -6.8698509643        8.8411108765       -0.0952007139
 C       -11.3180340092        3.6821452129       -1.2085136584
 C       -12.2196005700        5.8696910265       -0.3248499239
 C        -9.1022394777        1.5124919815        4.1260750783
 C        -6.7117953002        2.0568135023        3.3538940793
 C       -13.6409478052       -2.1596604225        0.3174806808
 C       -11.8048424203       -1.2760537218       -1.2772673074
 C       -14.8719945425        2.3916843091        4.6345108869
 C       -16.7505327766        3.7768502098        3.6459332912
 H       -13.2840129260        5.8612624203        3.1611228369
 H       -13.9472258482        5.1442712021        4.5557809423
 H       -15.1748492961        5.8734618688        3.4678621064
 H       -14.8302615848        0.1692515974        2.3484080110
 H       -13.8056850438        1.4317574949        1.6814479669
 H       -15.5070650886        1.3599467706       -0.3871839552
 H       -15.7047935753       -0.3432069090        0.1750409224
 H       -10.7444673436        1.0483900493        1.6991712976
 H       -10.4205219551        0.3763321537        0.0471015330
 H        -8.9549396431       -1.4399213995        1.2400700069
 H        -9.8066378787       -0.9081371971        2.7376887728
 H        -8.1139695302        4.8218925072        2.6132567993
 H        -9.4732866394        4.2802952015        3.4388517937
 H        -9.6641757851        6.1542496128        1.9551657424
 H       -11.0137452188        4.9969825619        1.9536385449
 H       -11.7193674634        7.6353529766       -1.7188546437
 H       -11.5291429147        7.3431818011       -3.4829028290
 H       -10.0401406638        9.3026359132       -2.7492735615
 H        -9.2091600402        7.9190991480       -3.5259024644
 H        -4.9468040583        7.4484217981       -0.9567668858
 H        -4.4949473392        8.2110481005       -2.4613901434
 H        -2.9470614672        6.2170716110       -2.3934287094
 H        -4.1262937804        6.1031496581       -3.6759266214
 H        -4.3200909755        0.5212651280       -2.7488750690
 H        -3.7261389567        1.1219402071       -4.2364282400
 H        -5.5160041176        0.5335682532       -3.9674998345
 H        -3.2739935491        3.8329675484       -4.5889603649
 H        -2.3325144400        2.5695441315       -3.8128303199
 H        -2.0531309484        4.2877498575       -3.4182216167
 H        -4.5690931069        2.6418989823       -0.6549468752
 H        -2.9217258960        3.3386355287       -0.5704335257
 H        -3.0750116690        1.7933028924       -1.2889587717
 H        -8.0113522303       10.5932913476       -2.0561644018
 H        -7.4928945546        9.7353864263       -3.3337500728
 H        -6.2517687684       10.3568106061       -2.3577943765
 H        -6.3053827763        9.7974410514       -0.0790854621
 H        -6.2161925565        8.0720258849        0.2622986827
 H        -7.6978223905        8.9087224378        0.5528277536
 H       -11.7257025510        3.5888600521       -2.1801721069
 H       -12.0677774561        3.3056993820       -0.4952118269
 H       -10.3727661390        3.1822376970       -1.1143468137
 H       -13.0774764790        5.9315857672       -1.0026924178
 H       -11.9647903959        6.8716208594        0.0677940172
 H       -12.5759696596        5.2766749180        0.5185227865
 H        -8.6376373404        1.8525930551        5.0362429359
 H        -9.3459444438        0.5110215449        4.3436434482
 H       -10.0893566871        2.0604952579        4.0444266598
 H        -6.2157950445        1.1512479387        3.7663367382
 H        -6.7081940872        2.8468064480        4.0538224447
 H        -6.1971894657        2.3855344973        2.4412171091
 H       -13.1281196720       -2.8178950899        1.0194490853
 H       -14.1646034034       -2.6965993273       -0.5213522278
 H       -14.4663150747       -1.8436742146        0.9327711727
 H       -12.3402565080       -1.9337780723       -1.9927940703
 H       -10.9297067508       -1.8658110142       -0.9031328238
 H       -11.4107333290       -0.3875902142       -1.8092012873
 H       -15.4549973320        1.6834051944        5.0811737262
 H       -14.6225879378        3.1510806527        5.3537786632
 H       -13.8928492058        1.9418178261        4.3582589497
 H       -17.4960829951        3.1645268143        4.0266534568
 H       -17.2652823277        4.3216527247        2.8455532011
 H       -16.6352171472        4.4771902353        4.4158102930
 Na       -7.7307967141        4.3034102669       -2.4203803248
