117

 C       -14.1872725262        5.3348098259        3.7184851527
 C       -14.4278646783        4.0330436686        2.8501099397
 O       -13.7784331259        3.7973185724        1.8581344967
 C       -15.5153584776        3.0389005657        3.2770442903
 C       -15.8127602803        2.0004683725        2.1240517756
 O       -16.9675488045        1.8841877766        1.7062486760
 C       -14.7731705464        1.0239969829        1.7022831252
 C       -14.9218542927        0.5664898739        0.2350715088
 C       -13.6057941896        0.2894297113       -0.4693500372
 O       -13.2466151184        0.9935814387       -1.3771044197
 C       -12.7011660757       -0.9358598159       -0.0895518149
 C       -11.9335066219       -0.5291133936        1.1813553144
 O       -12.3839233626       -0.6392517767        2.2953752953
 C       -10.5765389545        0.3133371713        1.0217427687
 C        -9.4257986913       -0.5045341610        1.5999382232
 C        -8.2131433007        0.3903587554        1.8760356630
 O        -7.1091768816        0.2073646118        1.3819871874
 C        -8.3666526042        1.6336461936        2.8952710009
 C        -8.9405284393        2.7801788295        1.9814722750
 O        -9.2673482472        2.5596478837        0.8510495435
 C        -8.8979063648        4.2296894266        2.4149797899
 C        -9.8937150432        5.1883685374        1.6077197486
 C        -9.6370225301        5.0817494353        0.1029126488
 O        -8.5128139172        4.9710320711       -0.3382510648
 C       -10.8806612184        5.1057501838       -0.8556077994
 C       -10.5486061704        5.8478950752       -2.1320600166
 O        -9.8252999425        5.3724558245       -2.9878288694
 C       -11.0563190775        7.3272260337       -2.4460950533
 C        -9.8048052572        8.2789442262       -2.5547275719
 C        -8.8712390223        8.1088293961       -1.3723983417
 O        -9.3335875601        7.5573770380       -0.3800468365
 C        -7.3969743045        8.5036096438       -1.4388230042
 C        -6.4991160750        7.4985454324       -2.1861923895
 O        -6.9842550528        6.8153377714       -3.0280914829
 C        -4.9950582514        7.3726510874       -1.9253236728
 C        -4.3704644146        6.2280820166       -2.7592800968
 C        -4.7516891590        4.7968188442       -2.1969045104
 O        -5.6035837601        4.7741204742       -1.3340777302
 C        -4.0743335261        3.4157163988       -2.7275706809
 C        -5.1103888126        2.5173116419       -3.3836809016
 O        -6.2101564992        2.8964419374       -3.6534514683
 C        -4.6655488812        1.0925600075       -3.7739125718
 C        -2.7320120713        3.6477393871       -3.4982797245
 C        -3.5071407612        2.8880762036       -1.3272074171
 C        -7.2533182328        9.8492642002       -2.1829077155
 C        -6.9026454402        8.6415046233        0.1021414395
 C       -11.2379769948        3.6588632318       -1.2588841270
 C       -12.1500908941        5.7119304738       -0.2512461985
 C        -9.3376850107        1.3780729654        4.0280620548
 C        -6.9510748683        1.9726076849        3.4761833200
 C       -13.5288784068       -2.1874166964        0.2131637123
 C       -11.7947457124       -1.2062051802       -1.3027030150
 C       -15.0036487106        2.1202306058        4.4368530466
 C       -16.8178792617        3.7649968637        3.7176973560
 H       -13.1577039073        5.6650684673        3.6887779212
 H       -14.3696381875        5.1542592397        4.7890169353
 H       -14.8228681245        6.0756409270        3.4155791690
 H       -14.7929302408        0.1345797158        2.3073079525
 H       -13.7532543639        1.4746682516        1.8925759393
 H       -15.5245531676        1.2361432113       -0.4234559557
 H       -15.4923611302       -0.3632907516        0.2664235026
 H       -10.8014789032        1.2646572258        1.4835570602
 H       -10.4070069569        0.4525694997       -0.0309749708
 H        -9.1364370303       -1.4020334465        1.0669225223
 H        -9.7520294850       -0.7195958374        2.6354317506
 H        -7.7917414506        4.3932469083        2.0782062249
 H        -8.9511722073        4.3469373395        3.5510286462
 H        -9.8125268360        6.2197937510        1.9428403258
 H       -10.8919509039        4.8734832286        1.8127505027
 H       -11.7520222732        7.6910625472       -1.7055429766
 H       -11.5016066463        7.2985983747       -3.4336132954
 H       -10.2183582966        9.2915091341       -2.5144274849
 H        -9.2781111605        8.1602414198       -3.4875127516
 H        -4.7460641059        7.3246173184       -0.8312752679
 H        -4.5223862956        8.2256972798       -2.3082319470
 H        -3.3800135300        6.3385297811       -2.8752551867
 H        -4.6565465138        6.1715506622       -3.7919553670
 H        -4.1937963347        0.5711222995       -2.8645907423
 H        -3.9217262525        1.1821555943       -4.5361214922
 H        -5.6075045672        0.5347775914       -3.9277844816
 H        -2.8621452704        3.8855030368       -4.5116711793
 H        -2.1696990363        2.7141412330       -3.3879811127
 H        -2.1703682990        4.4128596118       -3.0894886467
 H        -4.2150273145        2.8898941562       -0.5436757300
 H        -2.6374261792        3.4085715636       -0.9725740120
 H        -3.1516644455        1.8315815335       -1.5427411356
 H        -8.0337699753       10.5133987815       -1.9871604305
 H        -7.3919029740        9.8136735083       -3.2338690984
 H        -6.3219519612       10.3040601776       -2.0746162406
 H        -6.1288194712        9.3830560036        0.2216421603
 H        -6.6815123981        7.6237418024        0.4729032874
 H        -7.7924549642        8.9617289528        0.6982670871
 H       -12.0119885660        3.5957663874       -2.0649627067
 H       -11.5659312731        3.1863390306       -0.3595184375
 H       -10.2779517292        3.2423618435       -1.6221334648
 H       -12.9277134903        5.9347534037       -1.0020396685
 H       -11.8419059700        6.6093449618        0.3184592400
 H       -12.6079411142        5.0538593057        0.4879619847
 H        -9.7914921880        2.2490922996        4.5291819827
 H        -8.8422331527        0.8538571730        4.9217463305
 H       -10.1208568716        0.7228227941        3.7187997485
 H        -6.7604644985        1.2047880863        4.1912785264
 H        -6.8391702676        2.9811308999        3.9279596683
 H        -6.2337881382        1.8771983852        2.6961009738
 H       -12.8807470023       -3.0797098645        0.1435461307
 H       -14.3493395667       -2.2942665388       -0.4371935782
 H       -13.9518919502       -2.3257908455        1.2301936852
 H       -12.3385864038       -1.1067461494       -2.2756107400
 H       -11.1746623105       -2.0863267252       -1.1486835063
 H       -11.0553932841       -0.3936791191       -1.4439762749
 H       -15.8806654528        1.5576026927        4.9090071814
 H       -14.5802323499        2.7685754292        5.1871206603
 H       -14.2262141766        1.4336114022        4.1759341588
 H       -17.7782951025        3.2675459689        3.9089421508
 H       -17.0653539599        4.5411242086        2.9806698506
 H       -16.7267939953        4.3948085314        4.6655794091
 Na       -7.6509461543        4.3575624148       -2.3684263722
