117

 C       -14.3788651323        5.5908047526        3.2156294606
 C       -14.4523498950        4.2288714226        2.4897532585
 O       -13.8807607090        3.9371638725        1.4551514375
 C       -15.4307688009        3.2064321600        3.3234773294
 C       -15.8382881626        2.0740993901        2.2446992982
 O       -16.9774437646        2.0873021890        1.8393313039
 C       -14.7518520902        1.0410493904        1.7283485230
 C       -14.9214464934        0.6212812993        0.2311536088
 C       -13.6044585767        0.2617349942       -0.3381894524
 O       -12.9496554814        0.9329545666       -1.1110800178
 C       -12.9198289289       -1.1090132739        0.1695668595
 C       -12.0443902800       -0.7811488423        1.4468910571
 O       -12.3470808807       -1.2517721283        2.5199671939
 C       -10.7807241276        0.1947373133        1.2404830156
 C        -9.6860467594       -0.2743649907        2.2825454772
 C        -8.3036480881        0.4019946590        2.1066736249
 O        -7.3648031633       -0.1480712090        1.5624995838
 C        -8.0525102387        1.8614160653        2.7003531082
 C        -8.8138008867        2.8630880626        1.7831770918
 O        -9.2239371817        2.5565399145        0.7071238315
 C        -9.0993737149        4.3652976740        2.2308641435
 C       -10.2853406150        5.0684182658        1.4104356413
 C        -9.9548580291        5.1504541407       -0.0878269284
 O        -8.7543038819        5.2214452798       -0.4249135487
 C       -11.1354738264        5.1587574264       -1.0286641236
 C       -10.6264024519        5.7654370634       -2.4174673306
 O        -9.9464328645        5.0903376078       -3.1679662322
 C       -10.8341178347        7.3120022264       -2.6393429698
 C        -9.4684076327        8.0438633471       -3.0147926903
 C        -8.6519220064        8.3588432629       -1.6986208442
 O        -9.1360145120        8.3455194474       -0.5529154114
 C        -7.0726017941        8.7270980682       -1.8210051375
 C        -6.3972504354        7.3689869269       -2.2280574292
 O        -7.0342432675        6.6114699775       -2.9643063490
 C        -5.0479716408        6.9811734379       -1.6635005116
 C        -4.2537576091        5.9152170838       -2.4031959267
 C        -4.6504610822        4.5160874516       -1.8487961240
 O        -5.5164223658        4.4967528464       -0.9674783423
 C        -4.0970071833        3.2017093926       -2.4420795025
 C        -5.2521718431        2.2582701863       -2.9990213593
 O        -6.4316987154        2.5761657682       -3.0416485771
 C        -4.6599187365        0.9616194670       -3.6130146553
 C        -3.1126565901        3.3621138309       -3.5926088474
 C        -3.4713922412        2.5655177275       -1.1992111496
 C        -6.7485668260        9.7679090842       -2.9204012490
 C        -6.5857589044        9.2761543755       -0.4394703545
 C       -11.6301716072        3.6683303406       -1.2445411957
 C       -12.2988322853        6.0332735201       -0.4529753367
 C        -8.6220289629        2.0334154457        4.1513588144
 C        -6.4602221197        2.1569693985        2.7309729119
 C       -13.9282231581       -2.1527271184        0.6293239362
 C       -11.9952708932       -1.6530110627       -0.9974124427
 C       -14.6431259581        2.5570138001        4.4418699333
 C       -16.6858170094        3.9722013042        3.7162717544
 H       -13.5994863238        6.2728183265        2.7758791987
 H       -14.0800453296        5.3427088985        4.2962488164
 H       -15.3226371085        6.0511761925        3.3291914406
 H       -14.9820337081        0.1382558566        2.3358083353
 H       -13.7493560067        1.4055020875        1.9083733004
 H       -15.2020970068        1.5233281759       -0.3419484537
 H       -15.6379337963       -0.1957397730        0.2157258090
 H       -11.1247261049        1.1756082265        1.6242146913
 H       -10.5372328268        0.3764757812        0.1908972149
 H        -9.5293059789       -1.3741880016        2.2520205553
 H       -10.0169323189       -0.1053514972        3.2828130991
 H        -8.1912464091        4.8074678966        1.9523859175
 H        -9.1340482011        4.5121951958        3.2875422859
 H       -10.4494571373        6.0865438428        1.7784259347
 H       -11.2219838601        4.4952245539        1.6146018978
 H       -11.2581858117        7.7508179313       -1.6982552068
 H       -11.6066629837        7.5616460704       -3.3525563902
 H        -9.6978560977        9.0240158564       -3.3711748559
 H        -8.8374360077        7.5362354477       -3.7998856483
 H        -5.0933924160        6.6139010915       -0.5908553053
 H        -4.5256835347        7.9189465100       -1.6220561306
 H        -3.1795435012        6.0788695257       -2.1628831510
 H        -4.4429510966        5.8705015374       -3.5788946740
 H        -5.1238919040        0.1298067567       -3.0317085433
 H        -3.6310967946        0.8563702644       -3.4214662225
 H        -4.9643140600        0.8962347199       -4.6404938190
 H        -3.6560240508        3.4996933016       -4.4978219650
 H        -2.5782695722        2.4016027199       -3.8221347787
 H        -2.3147653122        4.0426134364       -3.4940251837
 H        -4.1016088856        2.7062607016       -0.3196677814
 H        -2.5739890779        3.0774683056       -0.9143431089
 H        -3.1532987118        1.4606035827       -1.2823328514
 H        -7.3506751532       10.6757954767       -2.8944671034
 H        -6.7664421012        9.3520761421       -3.9389739696
 H        -5.8075746448       10.2981381795       -2.7815083413
 H        -5.5415177969        9.1785657221       -0.2641339016
 H        -7.0101633541        8.6581341080        0.3357662208
 H        -6.9422107008       10.2970354873       -0.3269505871
 H       -12.6143488170        3.7263455855       -1.7404770215
 H       -11.7742926345        3.2118868799       -0.3050767227
 H       -10.8565958472        3.1230067327       -1.7848749094
 H       -13.1501000771        6.1387394848       -1.1630801498
 H       -12.0105111878        7.0924449396       -0.2171157346
 H       -12.6873762958        5.5440103833        0.4235494043
 H        -9.0181523423        1.0579065752        4.3857464595
 H        -9.4758341335        2.7601968418        4.2280971380
 H        -7.8657737342        2.1688289873        4.8786080711
 H        -6.1100220808        1.5173083878        3.5112350679
 H        -6.2943919514        3.1763605508        3.0715116906
 H        -6.0238068135        1.8855615007        1.8147871540
 H       -13.4211601904       -3.1488363408        0.5693055130
 H       -14.7866981233       -2.2024600119        0.0117300547
 H       -14.2598788406       -1.9508467263        1.6850933525
 H       -12.4510958930       -1.6164799049       -2.0030273870
 H       -11.7839244929       -2.6925924194       -0.9333461625
 H       -11.1452136145       -1.0067824832       -0.8961416670
 H       -15.2934232126        1.9059554372        5.0757725139
 H       -14.3046338414        3.3195130388        5.0659485429
 H       -13.8259892549        1.9836805622        4.1048475894
 H       -17.5118256792        3.3392839207        4.0530435689
 H       -17.0866614488        4.4903079827        2.9276051568
 H       -16.5529627456        4.7002013291        4.4802803235
 Na       -7.6963436542        4.3787079036       -2.1578183053
