117

 C       -14.1639580170        5.3198438947        3.4261236725
 C       -14.4777457518        4.0703754139        2.6417131568
 O       -13.9129576631        3.7616895505        1.6348404523
 C       -15.4295349474        3.0484632153        3.2512327150
 C       -15.8469871841        1.9717145647        2.1772297808
 O       -17.0297010299        1.9949150498        1.7768715595
 C       -14.7702342684        1.0640959559        1.6904680624
 C       -15.0228399907        0.5429249451        0.2603046438
 C       -13.6908811962        0.2651547206       -0.4791458198
 O       -13.2565319956        1.0432674127       -1.2999326403
 C       -12.8359245482       -0.9736854882       -0.0298237072
 C       -12.0023078534       -0.5166138169        1.2206631117
 O       -12.5329727047       -0.7834157708        2.2816226963
 C       -10.6365417693        0.1361571609        1.1090154320
 C        -9.4625326919       -0.4546613418        1.9823319210
 C        -8.1888960093        0.3981617844        1.9273665146
 O        -7.1492219025        0.0781921973        1.3393827122
 C        -8.1666644817        1.8147837778        2.8641551041
 C        -8.8132939864        2.8566800837        1.9500023981
 O        -9.0294014869        2.6150681005        0.7844342022
 C        -9.0568921732        4.3613542204        2.5017056991
 C       -10.1196111329        5.2052335657        1.6459846952
 C        -9.7601277139        5.0761783591        0.1492880046
 O        -8.6506095590        4.9329490080       -0.3072532579
 C       -10.9947971603        5.1449969355       -0.8926361041
 C       -10.4800739918        5.8641474592       -2.1430705252
 O        -9.7425671531        5.3503186966       -2.9580432218
 C       -10.9631718947        7.3268113048       -2.6421228284
 C        -9.6676074026        8.1401150183       -2.7668425885
 C        -8.8678707131        8.1108702930       -1.4398345203
 O        -9.3033428950        7.8216713725       -0.3610273980
 C        -7.3061381115        8.5074210569       -1.5353781346
 C        -6.5317641870        7.2785953602       -2.1637463219
 O        -7.1109837406        6.5085805456       -2.8729223713
 C        -4.9686617901        7.2611895448       -2.0386324865
 C        -4.1511112965        6.1109151639       -2.5910335431
 C        -4.7256794724        4.7303023784       -2.1270846316
 O        -5.6794490041        4.6739142250       -1.3953026651
 C        -4.0482660793        3.4015338335       -2.5067030737
 C        -5.1347841951        2.4733635649       -3.2064719583
 O        -6.2387415449        2.8558218390       -3.4176309569
 C        -4.5835581969        1.0553621673       -3.5566672706
 C        -2.8624921929        3.5725691907       -3.5311027078
 C        -3.4944264513        2.5302299573       -1.3126907878
 C        -7.1668241374        9.7355132327       -2.4918202872
 C        -6.7728210941        8.8866947626       -0.0962480148
 C       -11.3753074919        3.7043642410       -1.3595249571
 C       -12.1796997330        5.9429422013       -0.2323098477
 C        -8.9801028758        1.6252127054        4.1273414411
 C        -6.7128215057        2.1512530028        3.2389216696
 C       -13.7392543962       -2.1343860324        0.4128651555
 C       -11.8236437203       -1.2823519238       -1.1536918174
 C       -14.7663946122        2.4733713121        4.5440106710
 C       -16.7544328083        3.8549185022        3.6697790002
 H       -13.2668308514        5.8479690640        3.0124340025
 H       -13.7653900908        4.9822914155        4.4233445268
 H       -15.0475060915        5.8940896779        3.6357845570
 H       -14.6796097455        0.2849697336        2.4826289330
 H       -13.8469138420        1.5719833617        1.6478991929
 H       -15.4607268907        1.3455255618       -0.3083911429
 H       -15.6386475635       -0.3559524817        0.2593641994
 H       -10.9097378915        1.1456734638        1.3884594274
 H       -10.3060839472        0.1522302018        0.0658404583
 H        -9.0849628746       -1.3744312894        1.4187591115
 H        -9.6761339866       -0.7278024690        2.9910469804
 H        -8.0540052984        4.8776544871        2.4423556324
 H        -9.2762514590        4.3186366691        3.5118697262
 H       -10.2012606279        6.2216315661        2.0268651909
 H       -11.1218555439        4.6874725628        1.7171266097
 H       -11.6339094336        7.8667144015       -1.8954746721
 H       -11.5023538015        7.1863036704       -3.5475154236
 H        -9.8520089704        9.1971444606       -2.9245730680
 H        -8.9664451862        7.7503660312       -3.5913116333
 H        -4.9302813129        7.3243291599       -0.9065205652
 H        -4.4547476348        8.1728698703       -2.3935123776
 H        -3.0687777611        6.1785236418       -2.3934555616
 H        -4.1394543881        6.1444678057       -3.7341450283
 H        -4.3438927294        0.5529938692       -2.5818793123
 H        -3.6759397183        1.1816163355       -3.9788578860
 H        -5.3893809435        0.4965038466       -4.0038217682
 H        -3.1205811249        4.0739612443       -4.4980844850
 H        -2.4777483386        2.5305165077       -3.7525783240
 H        -2.0078446757        4.1678449141       -3.1178655706
 H        -4.2577378576        2.2218858780       -0.6824414677
 H        -2.8504263932        3.2059459377       -0.6366330932
 H        -2.7352561504        1.8116611714       -1.6088559433
 H        -7.5957624842       10.7049001023       -2.0765333651
 H        -7.6597912065        9.7557241829       -3.4839779844
 H        -6.0978301788        9.9992777316       -2.7585362151
 H        -6.0201647298        9.6927350896       -0.2128033243
 H        -6.2428308266        8.0902663141        0.3882654879
 H        -7.6090975891        9.2417814484        0.4866009455
 H       -12.0531228186        3.8333141345       -2.2050390988
 H       -11.9217931151        3.1684645362       -0.6142300384
 H       -10.4214645029        3.2323138878       -1.6047185199
 H       -13.0063808554        5.9078618490       -0.9335829083
 H       -11.9356122738        7.0113376956       -0.0442138362
 H       -12.5573088774        5.4985221642        0.6130029909
 H        -8.3860803055        1.5747360471        4.9937430482
 H        -9.5061804173        0.6685127857        4.0993675904
 H        -9.7428611028        2.3826344101        4.3001539886
 H        -6.1093913595        1.3100420267        3.6696153411
 H        -6.7393467432        2.9873461178        3.9514372812
 H        -6.3073399432        2.5203428439        2.2919615633
 H       -13.1758236945       -2.8652853717        1.0489522232
 H       -14.2114087574       -2.5531380508       -0.4284468407
 H       -14.5755084131       -1.8295001417        1.0705323604
 H       -12.1229878632       -2.1520766583       -1.8198347510
 H       -10.8499388535       -1.6121805696       -0.7969468872
 H       -11.6675166356       -0.3211933117       -1.7009955923
 H       -15.3462055548        1.6086332114        4.9555744671
 H       -14.7057210317        3.1934268972        5.3127201244
 H       -13.7362628400        2.1214627812        4.3499525484
 H       -17.4256939192        3.2299131069        4.1431687037
 H       -17.3552215371        4.2576929251        2.8743275092
 H       -16.6431431319        4.6732587661        4.3796872684
 Na       -7.8017406928        4.2714725076       -2.4975936426
