117

 C       -13.6611866176        2.3087132897        0.7623441160
 C       -12.7084571133        1.8580728546       -0.4145962408
 O       -11.8088688694        2.5965988063       -0.8738442859
 C       -12.8509450538        0.2917556189       -0.8956649014
 C       -11.3648342768       -0.0742406838       -0.6926846211
 O       -10.5773816540        0.0449896925       -1.6412452830
 C       -10.8226546561       -0.3221541578        0.6612582909
 C        -9.3500601219        0.2536034751        1.0544445722
 C        -8.1490507712       -0.7064624592        0.3963343337
 O        -8.4260869108       -1.7003328543       -0.2545464579
 C        -6.7304882881       -0.1526741461        0.6736725021
 C        -6.7197457499        1.1763837432       -0.2454484273
 O        -6.3032317622        2.3204646080       -0.0027825056
 C        -7.0015743609        0.9546142108       -1.8100089850
 C        -6.8583722301        2.2585356736       -2.4950561426
 C        -7.5593715969        2.1534059523       -3.9237267676
 O        -8.4846838436        1.3621110096       -4.1758578156
 C        -6.9407183930        2.8293882422       -5.1658459886
 C        -7.5721192910        4.3809358630       -5.1307375496
 O        -7.5141772577        5.2367106035       -4.2229333399
 C        -8.5402173784        4.8014748263       -6.1635868082
 C        -9.6232611557        5.8290120482       -5.7119985683
 C       -10.3715723493        5.0468777099       -4.5438649838
 O       -10.3135240427        3.8622971221       -4.4960777312
 C       -10.8618026637        5.8088517897       -3.3830772047
 C        -9.8273715889        5.5105494289       -2.1877397835
 O        -9.1925575238        4.4620496473       -2.1618234661
 C        -9.9331906577        6.4138554915       -1.0090262146
 C        -8.5214066288        6.6629376899       -0.4013778464
 C        -8.5796149228        7.1346237556        1.0405239329
 O        -9.4569179597        7.9346922027        1.3144159524
 C        -7.9224528296        6.3698708845        2.2681181949
 C        -9.3568535250        5.7331262804        2.6624207176
 O        -9.9476338849        5.0494100475        1.8573087636
 C        -9.9979887376        5.9313753800        4.1366151170
 C       -11.4613722833        5.6528452387        4.0834980026
 C       -11.8772925540        5.2210706836        5.4391343633
 O       -11.1109207056        4.5320291002        6.1190086239
 C       -13.3586868463        5.4994980037        6.0263862790
 C       -14.3569425702        4.8045535316        5.0162372029
 O       -14.4452006753        5.2360542260        3.8880205714
 C       -15.0377779212        3.5218861401        5.5509389699
 C       -13.3603557023        5.0159730516        7.4088931242
 C       -13.5185954683        7.0468683803        5.8383333324
 C        -6.9953921563        5.2476848122        2.0486381696
 C        -7.4050698961        7.2390855685        3.4226640761
 C       -11.0224443213        7.3862044670       -3.6816066058
 C       -12.1776491024        5.3842828300       -2.7528355007
 C        -5.3677612810        2.8822822532       -5.0591621259
 C        -7.3398426662        2.1379363300       -6.4778034157
 C        -6.3517504566        0.2802133419        2.1737707047
 C        -5.5804708779       -1.0033828052        0.1570096704
 C       -13.5870681252       -0.6368135063        0.0907064025
 C       -13.3619473538        0.2625891431       -2.3062189122
 H       -14.6627728040        1.8677444969        0.6338399626
 H       -13.7756841330        3.4134103589        0.7368183329
 H       -13.1669392570        1.9505537979        1.6365465970
 H       -10.8152317558       -1.3042294339        0.9408597883
 H       -11.3687626496        0.1700662511        1.4951256027
 H        -9.2873657766        0.2215059246        2.1201923869
 H        -9.2910674575        1.2903196835        0.6577579929
 H        -8.0632310990        0.4168050625       -1.9272938457
 H        -6.3690581886        0.0835931693       -2.1614799204
 H        -5.8946705865        2.3533880415       -2.8824647651
 H        -7.1974612507        3.1674276340       -1.9656425395
 H        -9.0165038508        3.9513423210       -6.6924473474
 H        -8.0005455441        5.1694585866       -7.0537337514
 H       -10.2876482206        5.7718573245       -6.5275525116
 H        -9.4232896882        6.8865866005       -5.6110483149
 H       -10.5064455832        5.9476288960       -0.2812337456
 H       -10.3306841078        7.4450514776       -1.3400547679
 H        -7.8585926255        7.3477785255       -1.0021366488
 H        -8.0286076084        5.7413911767       -0.4753138384
 H        -9.7955425578        6.8676868155        4.6088789361
 H        -9.5818979737        5.1238484644        4.7759647539
 H       -11.5836585961        4.6819084762        3.5630319295
 H       -12.1941948972        6.3960542991        3.6546895113
 H       -16.1378750133        3.8376420855        5.6070681428
 H       -14.6614695364        3.3701797773        6.5326181059
 H       -14.8024741888        2.7135494559        4.9226718239
 H       -14.3304980338        4.7906392866        7.9923631298
 H       -12.8098428248        5.6561528435        8.0906672584
 H       -12.9377512135        4.0328024469        7.4560048580
 H       -14.0621319380        7.2820460066        4.8139977656
 H       -12.6503686746        7.6815939486        5.9241124682
 H       -14.0704256189        7.4397934930        6.8016072309
 H        -6.4959434758        5.0930397050        2.9058397551
 H        -6.4005097210        5.5931907038        1.1977982645
 H        -7.5587609899        4.3510591154        1.6874101301
 H        -7.4519178226        6.5411112617        4.2352518929
 H        -8.0598421513        8.1108075371        3.6129547616
 H        -6.3305845685        7.4630671056        3.1967055638
 H       -11.8489850398        7.7269623578       -3.1601944457
 H       -11.2435737153        7.4974075952       -4.7655909640
 H       -10.0901202637        7.9035420271       -3.4201258637
 H       -12.5094890529        6.1897984732       -2.0845416632
 H       -12.1842581469        4.4272378090       -2.3156830137
 H       -12.9716043290        5.4908024284       -3.5237353415
 H        -4.8791438059        3.5915931920       -4.3036165112
 H        -5.1257432098        3.2443103452       -6.1214967400
 H        -4.8180046693        1.9229218345       -4.8337323937
 H        -6.8719553307        1.1706218717       -6.4665464672
 H        -6.8477043805        2.5108924096       -7.3627185633
 H        -8.4181471123        2.0562406102       -6.5569852621
 H        -5.3103782402        0.2492471681        2.2654313712
 H        -6.7485731264       -0.3660434881        2.9716437087
 H        -6.7744653230        1.3111070609        2.3118071138
 H        -5.5789347579       -1.9212105281        0.7500361911
 H        -4.6848753505       -0.4226333748        0.3113630819
 H        -5.5299681044       -1.0098339714       -0.9445269197
 H       -14.5848079838       -0.3205588909        0.3570081976
 H       -13.1108088936       -0.8363465204        1.1045309740
 H       -13.5945773386       -1.6647014600       -0.3267001846
 H       -14.4499692709        0.2899383524       -2.2015285346
 H       -13.1506687009       -0.6268160952       -2.9351368800
 H       -13.0474457239        1.1985168334       -2.6676544602
 Na      -10.4912763608        2.1026272345       -2.7239061389
