117

 C       -14.0798741639        5.3992386661        3.3154829831
 C       -14.4816827730        4.1099562394        2.5967148155
 O       -13.8740850937        3.8064663715        1.5658809408
 C       -15.5504063422        3.1405895607        3.3037620279
 C       -15.8895828932        2.0537226768        2.2259865810
 O       -17.0007894094        1.9448999368        1.7741209148
 C       -14.7588496894        1.0545349006        1.7685794183
 C       -15.0285385076        0.6140010675        0.2616636960
 C       -13.6610939590        0.3003554772       -0.4462918017
 O       -13.1912291509        1.0387046648       -1.2955938079
 C       -12.8713923983       -1.0256873662        0.0250628408
 C       -12.0366816732       -0.5927175431        1.3368350564
 O       -12.3782174556       -0.8689061880        2.4544920061
 C       -10.6753599563        0.2654572058        1.0882689672
 C        -9.5608210540       -0.3285525377        1.9967115920
 C        -8.2332712265        0.4568128006        2.0202364011
 O        -7.2599267234        0.0890488916        1.4110590960
 C        -8.2236186951        1.8372883102        2.8121575346
 C        -8.7714434514        2.9090806913        1.8475276976
 O        -9.0210050775        2.5891434639        0.7189508135
 C        -8.9771488365        4.2986589967        2.4078596833
 C       -10.1411816229        4.9659260714        1.5464151714
 C        -9.8045773768        5.0146050803        0.0543226737
 O        -8.5986177802        4.9842222620       -0.1878639321
 C       -11.0062544824        5.2270075257       -0.9541271266
 C       -10.5189041481        5.8504714502       -2.1982229397
 O        -9.7617916600        5.2047082948       -2.9315227623
 C       -10.8674084107        7.2853375236       -2.6198826181
 C        -9.5587518659        8.0363605229       -2.7650396608
 C        -8.7139323477        8.1727897302       -1.4964493349
 O        -9.2889508203        7.9623768694       -0.4105182409
 C        -7.1985549364        8.5413270767       -1.6049379697
 C        -6.4702317884        7.3438495302       -2.1947481113
 O        -7.0339066380        6.5204706719       -2.9114218480
 C        -4.9298916581        7.2543401123       -1.9383864721
 C        -4.3530358463        6.0466036454       -2.6272119530
 C        -4.7991750732        4.6490882768       -2.0311882761
 O        -5.7559248518        4.6188636766       -1.2389414163
 C        -4.0343914955        3.3866798059       -2.4537374328
 C        -5.1294023210        2.4277706667       -3.1513417935
 O        -6.3046875415        2.7374368302       -3.3051390929
 C        -4.7486230217        1.0263295581       -3.5687899636
 C        -2.8537341322        3.7504668093       -3.4269017762
 C        -3.3757104050        2.5844519484       -1.3424123850
 C        -7.0603309014        9.6133717282       -2.6370944389
 C        -6.6894156086        8.9025990653       -0.1988745143
 C       -11.4560072373        3.8093914445       -1.3913521136
 C       -12.1823768631        5.9284994160       -0.2056342140
 C        -8.9088248263        1.7143932789        4.2635268036
 C        -6.7056489224        2.2574414747        3.0145107059
 C       -13.7367444809       -2.2084093833        0.3674668757
 C       -11.9151314013       -1.4515644046       -1.1573213258
 C       -14.7657101361        2.4971406295        4.3960504959
 C       -16.8073658734        3.8890875614        3.7942293221
 H       -13.3271772443        5.8833846029        2.7102092731
 H       -13.5608246127        5.2722144492        4.2996971232
 H       -14.9583315142        5.9329785164        3.4907486049
 H       -14.7370274779        0.2143188326        2.3978501716
 H       -13.7395809860        1.5270374289        1.7587555160
 H       -15.5645999302        1.3756245949       -0.3282782168
 H       -15.5015467143       -0.3249545758        0.3308967794
 H       -10.9866040245        1.2430911250        1.4705006341
 H       -10.3905510731        0.3791199413        0.0684789139
 H        -9.3186283823       -1.3283791103        1.6772430464
 H        -9.8866634186       -0.4064769100        3.0898586873
 H        -8.0293126480        4.9197126423        2.3321841177
 H        -9.1607279363        4.1995638295        3.5749305212
 H       -10.2363073284        6.0204024263        1.8896789820
 H       -11.0775946245        4.4608816168        1.7177138143
 H       -11.5233713088        7.7725405559       -1.9410142246
 H       -11.3948476655        7.2577411108       -3.6026682792
 H        -9.7974051169        9.0785294928       -3.1301093611
 H        -8.9191052342        7.5290759813       -3.4944546368
 H        -4.6767504619        7.3802229022       -0.8197554986
 H        -4.4386194735        8.0785457781       -2.4288779556
 H        -3.3350101782        6.0671520256       -2.5329881108
 H        -4.5099834360        6.1073182476       -3.7172870042
 H        -4.7111683990        0.3879396154       -2.6596484065
 H        -3.7059997379        1.0741973462       -3.9252333225
 H        -5.5983770811        0.7144829007       -4.1513278169
 H        -3.0740573395        4.4336920019       -4.2765993915
 H        -2.2990697886        2.8336183984       -3.8261533086
 H        -2.1411262721        4.2924375717       -2.8062373739
 H        -4.1204095088        2.1823036051       -0.6625093276
 H        -2.8779088821        3.2092750800       -0.7333959696
 H        -2.5471100072        1.9225709923       -1.6644857264
 H        -7.2156493618       10.6362494588       -2.3530547269
 H        -7.5866529146        9.5830976289       -3.6284669988
 H        -5.9961816734        9.6226795440       -2.9254694378
 H        -5.6742135196        9.2337356856       -0.2128251851
 H        -6.6466416023        7.9978590095        0.4415037339
 H        -7.3890194994        9.6870838838        0.1850065837
 H       -12.4517212870        3.9661162742       -1.8432810681
 H       -11.6585491106        3.2159232584       -0.5167560542
 H       -10.6824027675        3.3612963906       -2.0159915897
 H       -12.8899262655        6.1119332872       -0.9893037007
 H       -11.9604106756        6.8598536625        0.2259168181
 H       -12.7190320559        5.2394573149        0.4643035218
 H        -8.2159504112        1.2745782499        5.0160512492
 H        -9.8524308716        1.1139163861        4.2768271543
 H        -9.1247527634        2.6750326246        4.6160069803
 H        -6.1570602056        1.5536304376        3.6194040657
 H        -6.8111251390        3.2156971391        3.6402732796
 H        -6.2417693587        2.4850473134        2.0382978197
 H       -13.0853349037       -3.0588166715        0.5410351702
 H       -14.4363732578       -2.3756492087       -0.4295981630
 H       -14.3358825398       -2.1157036621        1.3025561216
 H       -12.3700679723       -2.2841363233       -1.7282644002
 H       -11.0054819426       -1.9753567725       -0.8593208702
 H       -11.6461123970       -0.5551538938       -1.7619523801
 H       -15.3132959728        1.5332759015        4.7051987435
 H       -14.6403359723        3.0948472272        5.3268262821
 H       -13.8082016439        2.2062883985        4.0336701275
 H       -17.6129334756        3.1923753251        4.2771610402
 H       -17.3550055070        4.2360687503        2.9666375607
 H       -16.7335451049        4.7436028403        4.4803824969
 Na       -7.8875331227        4.2470301108       -2.4871084611
