117

 C       -15.6455326765        5.6433899370        2.1043637959
 C       -14.6763185703        4.7500867814        2.9877232093
 O       -13.5210638605        5.1292901747        3.1375144194
 C       -15.1403478943        3.3218932719        3.3992150934
 C       -15.1510779762        2.5883662829        2.0570625932
 O       -16.0612145711        2.8055100526        1.2423391961
 C       -14.0102881574        1.5739531403        1.7089868044
 C       -14.1229392333        1.0312718494        0.2676836625
 C       -13.0835357985       -0.0529027915        0.0416509447
 O       -12.2693967577       -0.0206626968       -0.8812768195
 C       -13.1421342722       -1.3517047141        1.0160713648
 C       -12.2227457558       -0.9972157969        2.2740774246
 O       -12.7744165320       -0.9024083022        3.3727376708
 C       -10.8045846863       -0.6984347674        1.9473162358
 C        -9.9377345693       -0.0055807812        3.0536871720
 C        -8.7268633229        0.5764322228        2.3098851438
 O        -8.0078892097       -0.1474103952        1.6569870354
 C        -8.5025404490        2.1759444930        2.4347298172
 C        -9.8259183794        2.9451224768        1.9246657830
 O       -10.6114999000        2.3157096321        1.2659028866
 C        -9.8269043766        4.4909549776        2.1492907659
 C       -10.7432139834        5.0673618051        1.1012650756
 C       -10.1124233070        5.1738705448       -0.3153919706
 O        -8.9206353848        4.9940897959       -0.5576998497
 C       -11.0656387379        5.2671524544       -1.5028616134
 C       -10.2644602147        6.1131387662       -2.6000248056
 O        -9.6932049836        5.5635039359       -3.5259194141
 C       -10.3853063757        7.6571652547       -2.6002576854
 C        -9.1437790646        8.2828765684       -3.2620838815
 C        -7.9387810384        8.4216840415       -2.2311344874
 O        -8.1564028336        8.6726095615       -1.0993201112
 C        -6.4537367195        8.4125803278       -2.8682038147
 C        -5.7779690767        6.9938107414       -2.6078754800
 O        -6.1640994885        6.0887256715       -3.3086141686
 C        -4.7743951032        6.7720286165       -1.5072049781
 C        -3.9847777535        5.4727022818       -1.4882165920
 C        -4.8523102240        4.2769284249       -1.4604312114
 O        -5.9029579958        4.4047331510       -0.8744985889
 C        -4.3282012840        2.9692453328       -2.0747897187
 C        -5.5597902320        1.9979260420       -2.3582103227
 O        -6.6343372196        2.4740396048       -2.6241697680
 C        -5.3801336293        0.4680704403       -2.5100307867
 C        -3.7381137112        3.2688510155       -3.4552233826
 C        -3.2312257562        2.3711950537       -1.1398128739
 C        -6.5003951401        8.6042989592       -4.4301402140
 C        -5.7615014349        9.6739074285       -2.3410924954
 C       -11.3264782262        3.8395297865       -2.0249974600
 C       -12.4436275272        5.9772833727       -1.1955293200
 C        -8.3157506794        2.4353795267        3.9213234461
 C        -7.3935891443        2.5616936914        1.4692148246
 C       -14.6535558055       -1.7017068414        1.4807854286
 C       -12.6839025461       -2.5457100776        0.1823285433
 C       -14.1239020199        2.7170440376        4.3691086966
 C       -16.5572966693        3.2469163737        4.0182718010
 H       -15.3187376251        6.6708009704        2.0322759316
 H       -16.5722890012        5.6687862877        2.6943783396
 H       -15.7734920646        5.1615938005        1.1243652908
 H       -14.0545195924        0.7552951984        2.4929951648
 H       -13.0052326022        1.9213799474        1.9198647356
 H       -13.8173437713        1.8450481336       -0.4371772766
 H       -15.1635069870        0.7343774690        0.0822755788
 H       -10.9814004897       -0.0154826944        1.1025948883
 H       -10.3503038102       -1.6038092517        1.5834827030
 H        -9.4968764182       -0.8286555747        3.6682759682
 H       -10.4440833313        0.7253242896        3.6412964935
 H        -8.7903707568        4.8584444870        2.0773762563
 H       -10.2763651342        4.7133665316        3.2294990278
 H       -11.0930478382        6.0603848077        1.3383841414
 H       -11.6819584094        4.4435856327        1.0024681521
 H       -10.4270643552        7.9486173112       -1.5156834642
 H       -11.2346494298        7.9779043360       -3.1614656649
 H        -9.3727914863        9.2933108645       -3.5080222297
 H        -9.0034467062        7.6847300445       -4.2212517822
 H        -5.3884716266        6.8876037112       -0.5148773327
 H        -4.1054270099        7.6347210553       -1.4632432186
 H        -3.3140744005        5.5007668940       -0.6650142923
 H        -3.2191761221        5.4496798834       -2.3086434778
 H        -5.8732963003       -0.1256363044       -1.8033771408
 H        -4.2847646852        0.2934660184       -2.4243023910
 H        -5.6313897336        0.2534466758       -3.5318930655
 H        -4.4616532047        3.7990942546       -4.0074505386
 H        -3.6002956763        2.3467210407       -4.0081575545
 H        -2.8145290785        3.7191432957       -3.3436111879
 H        -3.5736262231        2.4102705487       -0.0703491946
 H        -2.3859874500        3.0232677873       -1.0718868722
 H        -2.8374733882        1.3918320079       -1.4458477751
 H        -6.6566116721        9.6570532863       -4.5490013687
 H        -7.2762547241        7.9822391093       -4.9282291917
 H        -5.4988618778        8.4714194811       -4.8157993280
 H        -4.9613742511       10.0853867488       -2.8596012589
 H        -5.3534985352        9.5423785118       -1.3233533272
 H        -6.5986289581       10.3912008985       -2.2582032830
 H       -12.2854471177        3.7173853191       -2.5633287237
 H       -11.4546364321        3.1580056185       -1.1976122616
 H       -10.4409774282        3.5317966757       -2.5787085246
 H       -12.9696241725        6.0697453740       -2.1507794355
 H       -12.3130116577        6.9852229073       -0.8521954205
 H       -13.0491894765        5.4375981339       -0.4248227775
 H        -7.4368129142        1.9280854971        4.4126418541
 H        -9.2915323546        2.1392750033        4.4536484352
 H        -8.1341586140        3.4624142668        4.1331605086
 H        -6.4618359510        2.1475170449        1.7742773540
 H        -7.2779533396        3.6796839619        1.4498104334
 H        -7.7384614088        2.1872399817        0.5190540195
 H       -14.5365176317       -2.7133408414        1.8579060558
 H       -15.3738103803       -1.7097554004        0.6876092421
 H       -14.9576239707       -1.0237178830        2.2908065313
 H       -13.5162486147       -2.8792910098       -0.4543574508
 H       -12.5612009494       -3.3996071608        0.8204506320
 H       -11.7894158836       -2.1410362320       -0.2620531031
 H       -14.5613770745        1.7807376294        4.7827181458
 H       -13.9062558400        3.4363220239        5.1708225479
 H       -13.2444779424        2.4819703161        3.8234468033
 H       -16.8311290787        2.2051443787        4.0763439073
 H       -17.2194951659        3.7433989858        3.3156816329
 H       -16.4991369337        3.6801172037        4.9617614474
 Na       -7.7050471159        4.5173566531       -2.5663559331
