117

 C       -15.3107140228        6.0148446471        2.6691436902
 C       -14.5492297508        4.6524485844        2.8062034707
 O       -13.3535388954        4.5253632400        2.6680150863
 C       -15.3504612431        3.4221029573        3.3934170100
 C       -15.3359857047        2.4264875127        2.1375629480
 O       -16.3743261623        2.1966136252        1.5210129203
 C       -14.0464988357        1.7082852851        1.7476472268
 C       -14.2481219515        0.9842235919        0.4239825026
 C       -13.1828119734        0.0171072370        0.0131082248
 O       -12.4139219936        0.2523744737       -0.8818830194
 C       -13.0630976343       -1.4351869900        0.6262064909
 C       -12.0426632713       -1.2116665113        1.8081340927
 O       -12.5092007431       -1.1667489204        2.9589868871
 C       -10.5529475896       -1.0703101532        1.5518899933
 C       -10.0028864925       -0.0529274245        2.5676031266
 C        -8.6198650992        0.4435167624        2.2324195375
 O        -7.6721905346       -0.2265753366        1.8999713425
 C        -8.2885416227        2.0130950338        2.4806849402
 C        -9.4293285378        2.9522172854        1.8352280927
 O       -10.0997590240        2.5837609140        0.8745938534
 C        -9.6547740689        4.3973310712        2.2738465376
 C       -10.6109524699        5.0998014800        1.2514424805
 C        -9.9464694496        5.1275136236       -0.0740335980
 O        -8.7539081115        4.8835748823       -0.1710215551
 C       -10.8285629595        5.3212594566       -1.3854993590
 C       -10.0520260582        6.0831636213       -2.4771184729
 O        -9.2197963762        5.4431940729       -3.1147243371
 C       -10.4265415136        7.4177029321       -3.0110017952
 C        -9.1431485138        8.0944231070       -3.5489153441
 C        -8.2841165468        8.5649198184       -2.3315676441
 O        -8.6822617215        8.4110456384       -1.2108990174
 C        -6.7661471524        8.8581386283       -2.5813495558
 C        -6.2025227347        7.4140993814       -2.3627248215
 O        -6.6519423659        6.5318194124       -3.0746284456
 C        -5.2475483713        7.0295391892       -1.2467749404
 C        -4.4686003368        5.7380167624       -1.6577771516
 C        -5.0705420028        4.2976778706       -1.3853157137
 O        -5.9109925563        4.0745783965       -0.5616957649
 C        -4.4444565759        2.9652213590       -2.2117871607
 C        -5.6440864994        2.1300577498       -2.6361262594
 O        -6.7558264550        2.5970726860       -2.8160358786
 C        -5.4635037524        0.5904064105       -2.9901414847
 C        -3.6715507427        3.2586021992       -3.5299805851
 C        -3.5551348307        2.1496021066       -1.3136645295
 C        -6.4665213150        9.2664532657       -4.0938667220
 C        -6.1634223478        9.8559890371       -1.6403124749
 C       -11.1215508095        3.8270257822       -1.7388107840
 C       -12.1910155844        5.9816742396       -1.1374524190
 C        -7.8920722888        2.2507807598        3.9562782102
 C        -7.0438175070        2.3799293646        1.6970615606
 C       -14.4370386100       -2.0017867960        1.1641844948
 C       -12.6126682353       -2.3796740036       -0.5276358550
 C       -14.5556169435        2.8363335131        4.5150454254
 C       -16.7498571384        3.7144255153        3.7780828118
 H       -14.8836694809        6.7359047793        2.0210448258
 H       -15.4122303339        6.4056920275        3.6324838885
 H       -16.2940595622        5.7121937565        2.2167569171
 H       -13.8147758068        0.9914011962        2.5268398774
 H       -13.1600764735        2.4395307866        1.7332497959
 H       -14.3176610896        1.7564850235       -0.3756271382
 H       -15.2467273889        0.5173748950        0.3347355952
 H       -10.4012801854       -0.8264043720        0.4798997331
 H       -10.0456507189       -2.0583021929        1.6251786218
 H        -9.9572134561       -0.3743795306        3.5724572149
 H       -10.6529358605        0.8630515809        2.5517669906
 H        -8.6614193165        4.8773027504        2.3727129510
 H       -10.1028774766        4.4440722888        3.2073122452
 H       -10.8077626688        6.1510996793        1.5756066722
 H       -11.5374448464        4.6098085907        1.2138802211
 H       -10.9651697540        8.0260422688       -2.3276212157
 H       -11.1838065003        7.2443855275       -3.8580998768
 H        -9.3701656131        8.9128041379       -4.2654773367
 H        -8.5892199688        7.3944356938       -4.0835243115
 H        -5.8012870863        6.9358143010       -0.3212511779
 H        -4.5312534960        7.8577170943       -1.1343194583
 H        -3.4659831283        5.7888270684       -1.1045802354
 H        -4.4041109420        5.7958229230       -2.7731141495
 H        -4.3997538511        0.3921326592       -3.0121039344
 H        -5.8017578896        0.2321004022       -3.9361404807
 H        -6.0202632012        0.1151707001       -2.1569403190
 H        -4.1466741117        4.0231036098       -4.1242180724
 H        -3.5485195160        2.3639306842       -4.0217268502
 H        -2.6985299757        3.6931012247       -3.3667802165
 H        -4.0786395497        1.7331250573       -0.4489994789
 H        -2.6417999272        2.8021588924       -0.9706025496
 H        -3.0753480462        1.3286356553       -1.7739337801
 H        -6.8780151450       10.2464967371       -4.2501142989
 H        -7.0757692138        8.7216739267       -4.7600963466
 H        -5.4545772466        9.1355628765       -4.3956815999
 H        -5.1733786439       10.2859627653       -1.8375567441
 H        -6.2989459034        9.5025999392       -0.6186806333
 H        -6.7623761714       10.7597204477       -1.6118497054
 H       -11.5370984201        3.7134007183       -2.7225899319
 H       -11.8250504007        3.4794828080       -0.9311138897
 H       -10.2143130261        3.2202548967       -1.7145362974
 H       -12.8428522942        5.7528894468       -1.9569417730
 H       -12.2180310135        7.0198192231       -0.8976142471
 H       -12.6882957430        5.4163343435       -0.3132492876
 H        -7.7483300097        1.2056295566        4.2959358201
 H        -8.6064220957        2.6743195719        4.6210496739
 H        -6.9292115199        2.8173538603        3.9619430060
 H        -6.2999036039        1.6497638984        2.0422661511
 H        -6.7824447396        3.4191814845        1.8051844007
 H        -7.3125976395        2.2138351636        0.6355507134
 H       -14.2020305186       -2.8969532146        1.6696002259
 H       -15.0775813362       -2.1069322571        0.2405988787
 H       -14.8954215607       -1.3360926510        1.8515965379
 H       -12.9730347013       -1.8854168013       -1.3880309162
 H       -13.0098483605       -3.3423805992       -0.1901128690
 H       -11.5339799683       -2.4731180439       -0.6002895476
 H       -15.1880710422        2.1487105856        4.9725320595
 H       -14.3336041816        3.6403842063        5.2833616335
 H       -13.5896833776        2.3988659151        4.1576819130
 H       -17.1657834896        2.8423871104        4.1880583229
 H       -17.4073324136        4.0822893273        2.9077072873
 H       -16.7274739698        4.4323685199        4.6192420119
 Na       -7.6962483796        4.5687059732       -2.0652355147
