117

 C       -15.5660412507        5.8247279780        2.4306198957
 C       -14.6244061731        4.7446420834        2.9447186193
 O       -13.4190730278        4.9101851898        3.0640355999
 C       -15.2733538352        3.4035139112        3.4076062849
 C       -15.2362888376        2.5003477639        2.1185509315
 O       -16.2454950413        2.4450127913        1.4045696689
 C       -13.9364023678        1.6706052999        1.6849035688
 C       -14.1480488557        1.1287861916        0.2961397659
 C       -13.0991848663       -0.0526107897       -0.0511789518
 O       -12.2141853135        0.1225346286       -0.8677283757
 C       -13.1286904933       -1.3603675594        0.7773540385
 C       -12.1488174008       -1.1554878251        1.9777234794
 O       -12.6108847377       -1.0631059977        3.1185522139
 C       -10.6759803245       -0.9521661278        1.6949074365
 C       -10.0674719349       -0.0962049606        2.6780865911
 C        -8.6611247993        0.5029166580        2.2325892077
 O        -7.7577874560       -0.2244843720        1.9006144190
 C        -8.4528529719        2.0536804596        2.3309827578
 C        -9.7108402220        2.8717069201        1.7526461632
 O       -10.5465917406        2.3917778940        0.9955581481
 C        -9.6967576274        4.4038286102        2.1693162577
 C       -10.5399081454        5.2927744549        1.2583852253
 C        -9.9996998918        5.1551997469       -0.2185625956
 O        -8.7929597922        4.9703161357       -0.4143876313
 C       -10.9774709638        5.2715258889       -1.3985645320
 C       -10.1798042563        6.0461602301       -2.4978515635
 O        -9.4361283424        5.4305941909       -3.2474267222
 C       -10.4716543424        7.5498307222       -2.7441734875
 C        -9.2359607050        8.2328310427       -3.3624275126
 C        -8.1106467993        8.5194045350       -2.3184853751
 O        -8.4662168755        8.7477278567       -1.2132561677
 C        -6.5944851528        8.5740176218       -2.7806782614
 C        -5.9826641345        7.1253564428       -2.5145292870
 O        -6.2609874299        6.2257940269       -3.2943641054
 C        -5.0123553791        6.8709262940       -1.3374918179
 C        -4.1404138135        5.6361577382       -1.5644748651
 C        -4.9597424367        4.3696128627       -1.4374278973
 O        -5.7647411049        4.2457387615       -0.5366150108
 C        -4.5044015357        2.9912279754       -2.2343706564
 C        -5.6975500757        2.0546457032       -2.6191651877
 O        -6.8259636682        2.5035531164       -2.7851318833
 C        -5.3980963771        0.5654589324       -2.6951642169
 C        -3.7426445581        3.2797041009       -3.5263278230
 C        -3.6187950347        2.3343120264       -1.1312451529
 C        -6.3935239227        8.9117716193       -4.2601278034
 C        -6.0293812792        9.7136752545       -1.8834409160
 C       -11.2867916085        3.8282597205       -1.9997056470
 C       -12.3339712715        5.8684000691       -1.0997848166
 C        -8.2023588112        2.4817244274        3.7809258761
 C        -7.1061575351        2.3924355172        1.5546228543
 C       -14.4960721954       -1.8467699400        1.3349605289
 C       -12.5286363655       -2.6465574736        0.0238558203
 C       -14.4279637312        2.7774725659        4.5320243586
 C       -16.6971652472        3.6362243224        3.9185057779
 H       -15.0268008867        6.4410756578        1.7203797727
 H       -15.7528500863        6.4592249985        3.2726500469
 H       -16.4389511673        5.3640532216        1.8674864684
 H       -13.7587761310        0.8864008837        2.3801161773
 H       -13.0067484637        2.2438899548        1.7963280681
 H       -14.1661962374        1.9444196836       -0.4604000981
 H       -15.1015733608        0.6902058147        0.2601150382
 H       -10.5947116423       -0.5139483463        0.6679072675
 H       -10.1933798925       -1.9070879366        1.6513687199
 H        -9.9198061081       -0.5339003139        3.6586590712
 H       -10.7357837036        0.7929729314        2.7080447436
 H        -8.6938397920        4.7432192844        2.0508110317
 H        -9.9877863325        4.5568194937        3.2234178250
 H       -10.4890489020        6.3468781856        1.6278491564
 H       -11.5777823816        4.9920423957        1.2363182868
 H       -10.7392945258        8.1174091109       -1.8566277434
 H       -11.3409445619        7.5748791047       -3.4463930289
 H        -9.5464888462        9.2535048756       -3.6384914339
 H        -8.9048326286        7.7486739825       -4.3122914990
 H        -5.6157390624        6.7594399758       -0.4076319594
 H        -4.4345260560        7.7169183595       -1.2039668734
 H        -3.4165135107        5.5581320550       -0.7890233000
 H        -3.5796460389        5.8010648902       -2.5163094101
 H        -4.6931192345        0.2466871254       -1.9576681500
 H        -4.8556469238        0.3812371250       -3.6710441525
 H        -6.4013621783        0.0961493762       -2.7682579489
 H        -4.4950958542        3.7448294962       -4.2585186602
 H        -3.2688092048        2.3861465180       -3.9936153004
 H        -2.9270447646        4.0355964022       -3.3423334893
 H        -4.2346548502        1.9645295302       -0.3169967750
 H        -2.8453346599        2.9861983255       -0.6644073680
 H        -3.0393105996        1.5687884876       -1.5260401903
 H        -7.2505773645        9.4165842647       -4.7357046230
 H        -6.2470007879        7.9802769276       -4.8901830010
 H        -5.4420246178        9.4962423330       -4.2559914150
 H        -4.9758062839        9.5526424334       -1.8184930696
 H        -6.3646437426        9.7616207582       -0.8352302738
 H        -6.1368828723       10.7292599904       -2.2756781207
 H       -12.0196310698        4.0459883342       -2.7737385469
 H       -11.8152875101        3.1584705738       -1.3084516352
 H       -10.4266855811        3.3700037622       -2.4553105725
 H       -12.8199963535        6.1892176733       -2.0154107651
 H       -12.2824441476        6.6953884196       -0.4469960201
 H       -12.9961556056        5.0578765734       -0.6511451649
 H        -7.2571603431        2.1070082162        4.2182366457
 H        -8.9851448924        2.0832344317        4.4092030828
 H        -8.2560050414        3.5337525661        3.7962788013
 H        -6.3618134207        1.6923661068        1.8209382831
 H        -6.8212626134        3.4139567942        1.8577357008
 H        -7.3676111533        2.4461116056        0.5011425310
 H       -14.3751729046       -2.8258672604        1.7272600822
 H       -15.1951442359       -1.7421026308        0.4706056653
 H       -14.8289097332       -1.1512465578        2.0931411080
 H       -13.4039214938       -3.1133945498       -0.4198278373
 H       -12.1292860526       -3.2518167738        0.8536813771
 H       -11.7273829665       -2.3192760855       -0.6225651521
 H       -14.2662300907        1.7433671636        4.4472891315
 H       -14.9101965918        2.9799345943        5.5173891294
 H       -13.4983078602        3.3119159405        4.4483313250
 H       -17.0533669478        2.7977565278        4.4787560016
 H       -17.2791633885        3.6546039571        2.9243031647
 H       -16.7615865886        4.5992218139        4.4520517569
 Na       -7.5373829116        4.4851268928       -2.2431692015
