117

 C       -13.6841909298        2.4229031581        0.8600609197
 C       -12.7702452535        1.7997189987       -0.2579239784
 O       -11.9876125140        2.5853224022       -0.7247426882
 C       -12.8579734660        0.4224412409       -0.8217795933
 C       -11.2140757266       -0.0323784075       -0.7412418801
 O       -10.6466073683       -0.0129939785       -1.8213895796
 C       -10.7451451361       -0.3150080988        0.6760279909
 C        -9.2938501493        0.2460586031        0.9676977523
 C        -8.2115566367       -0.6404556694        0.5092979186
 O        -8.3287345170       -1.7346478160        0.0393126498
 C        -6.7267519397        0.0323800381        0.6507802019
 C        -6.5740381608        1.2904886320       -0.3086424466
 O        -6.4762295251        2.3249474122        0.1872996992
 C        -6.9738154339        0.9740794608       -1.7612449580
 C        -6.7587790231        2.1811324829       -2.6299138941
 C        -7.4849826232        2.0758327144       -3.9827417046
 O        -8.5601888897        1.4724323613       -4.0418425909
 C        -6.8745274071        2.9246770580       -5.1541464024
 C        -7.5707276915        4.3159992860       -5.0550626134
 O        -7.1703897594        5.0098992427       -4.1809253602
 C        -8.5280510217        4.6831039938       -6.3517312254
 C        -9.5681874522        5.6343056233       -5.7314664712
 C       -10.4366750227        5.0147638131       -4.6491281670
 O       -10.6199072150        3.7998253126       -4.6243099797
 C       -10.9097909526        5.8247957599       -3.4422888404
 C        -9.9017513915        5.4212014808       -2.1843263270
 O        -9.4589828139        4.2631004906       -2.1023883752
 C        -9.7852942587        6.3594086133       -1.0831817285
 C        -8.4191003153        6.6449057285       -0.4446243743
 C        -8.6026369392        7.1922937535        1.0604496941
 O        -9.2724724775        8.1775675600        1.2792832709
 C        -7.9474521593        6.2844169135        2.2789874171
 C        -9.2569961644        5.6514672673        2.6973551113
 O        -9.9351157416        5.0224486997        1.8933808198
 C        -9.8025722341        5.8948198915        4.1718583082
 C       -11.3547843098        5.6871623286        4.0845038304
 C       -11.7900369781        5.1517109434        5.4094240804
 O       -11.2132830102        4.4783830753        6.2368386678
 C       -13.2795030411        5.5852113480        5.9934986781
 C       -14.2965338575        4.8317839995        5.0401436578
 O       -14.4013897496        5.1647315969        3.8785969446
 C       -15.2782485295        3.7077918265        5.5410114785
 C       -13.3862719395        5.4264979555        7.4331390429
 C       -13.6037333837        7.1216313777        5.6619744894
 C        -7.0351486079        5.1173713008        1.7835454397
 C        -7.2789893374        7.2808378748        3.3769636446
 C       -10.8271887341        7.3961792675       -3.7341991791
 C       -12.3157283331        5.2903063101       -2.8959822808
 C        -5.3654684815        2.8762883939       -5.0094532317
 C        -7.1869501579        2.0555552888       -6.3895174007
 C        -6.5147850727        0.1109763010        2.2214602580
 C        -5.5699461567       -1.0901848483        0.1198337706
 C       -13.7415856188       -0.5692345280       -0.0179839887
 C       -13.3829402679        0.3401978938       -2.2696847140
 H       -14.6691053619        1.9567724533        0.9417270810
 H       -13.8130808492        3.4945105216        0.5955462856
 H       -13.0888871178        2.2797554213        1.8202150888
 H       -10.7582359167       -1.4393923679        1.0381168836
 H       -11.2838192427        0.2221822762        1.4457590217
 H        -9.1864323700        0.5336416616        2.0555592239
 H        -9.1327967271        1.0811800313        0.3796464396
 H        -8.0164711992        0.5646117960       -1.9446712021
 H        -6.4225790873        0.0077763509       -1.9471389544
 H        -5.7251525844        2.5779279531       -2.8615229004
 H        -7.3942126928        2.9917679083       -2.3369508603
 H        -8.9478882541        3.8010119113       -6.8750323940
 H        -8.0127955617        5.1253566675       -7.2083675709
 H       -10.0439547277        6.2159281080       -6.4446677255
 H        -9.0303923342        6.4563720226       -5.0905848704
 H       -10.4636656811        5.9857819125       -0.2799892275
 H       -10.1059798286        7.3293260733       -1.4538275344
 H        -7.8181200066        7.4186433050       -0.9961621842
 H        -7.7911587871        5.7591501865       -0.5296199069
 H        -9.6227486452        6.9364346181        4.4069565580
 H        -9.1655134283        5.2196729906        4.9160786511
 H       -11.6383716122        5.0291079955        3.2261207822
 H       -11.9214547084        6.6224846408        4.0038124697
 H       -16.2434522075        3.9235148456        5.0675411586
 H       -15.3552266677        3.7798642377        6.6893626203
 H       -14.8472137623        2.8279779450        5.1711710483
 H       -14.3405991314        5.5690555833        7.9804839270
 H       -12.6769877833        6.2184293974        7.9199258545
 H       -13.0772877578        4.4547763216        7.8393374150
 H       -13.5276122218        7.2083611313        4.6603071635
 H       -12.8736210572        7.8285736443        6.1720080769
 H       -14.4877028139        7.4971083573        6.0713201635
 H        -6.5729985414        4.7526047376        2.8143744349
 H        -6.3398421310        5.5870269797        1.0322643826
 H        -7.5655529542        4.3735234466        1.2819982619
 H        -6.8948569042        6.6783987457        4.2256404993
 H        -7.9958396727        8.1112656794        3.6713657671
 H        -6.4595650885        7.6691827015        2.7164764508
 H       -11.4431903755        7.9740707230       -3.0763489144
 H       -11.3415605176        7.4104515064       -4.7310806742
 H        -9.8283745325        7.7358241055       -3.7698516292
 H       -12.8043445030        5.9622726442       -2.1890997131
 H       -12.1753803410        4.2652511248       -2.5018643217
 H       -13.0590673042        5.2571401063       -3.6940375994
 H        -4.7895135267        3.5256315635       -4.2811087487
 H        -4.9423230339        2.9976055614       -6.0406670355
 H        -5.1172913686        1.8070604761       -4.6664516291
 H        -6.6790493476        1.1136315916       -6.2913477337
 H        -6.7584425210        2.3873744994       -7.3071720105
 H        -8.2289627851        1.8928882957       -6.4613638034
 H        -5.4983373739        0.0932644306        2.4390840371
 H        -6.9787025072       -0.7814310118        2.6283676302
 H        -7.0238980579        0.9290333966        2.6767539939
 H        -5.6609241690       -1.8352184396        0.9269684042
 H        -4.5040978414       -0.6477092153       -0.0110546238
 H        -5.7195843472       -1.4216462803       -0.8617501075
 H       -14.7511480574       -0.3745544598       -0.3649357756
 H       -13.8759435756       -0.4908856879        1.1014020056
 H       -13.4677720278       -1.6018946061       -0.1416264638
 H       -14.4558128470        0.4121312272       -2.2979214242
 H       -13.2118553497       -0.6931895305       -2.4997695180
 H       -12.8748470057        1.1088032899       -2.9365571476
 Na      -10.6589490421        2.2020582786       -2.6585161545
