117

 C       -15.8425582405        5.7148378248        2.2108202149
 C       -14.7329231732        4.9283314875        2.9613092968
 O       -13.5944803548        5.3652688671        3.1755362438
 C       -15.0074574040        3.3952211811        3.4002396761
 C       -15.0222269032        2.6965735931        1.9265519314
 O       -15.9262028044        3.0271099172        1.1575232768
 C       -13.9577129213        1.6531486756        1.5528885039
 C       -14.3329986002        0.8291249047        0.2611573368
 C       -13.2563335912       -0.3264268624        0.1348528906
 O       -12.4699152335       -0.2496657175       -0.8386269756
 C       -13.3133155384       -1.4791484437        1.1084902997
 C       -12.2768806350       -1.0123220630        2.3359870148
 O       -12.7000610603       -0.6968494499        3.4124059234
 C       -10.8198510382       -0.8637481119        1.9714748739
 C       -10.0670428007        0.0076081863        3.0025307695
 C        -8.8140544172        0.7381363069        2.3375081944
 O        -8.0977404397        0.0585567745        1.6268016980
 C        -8.5031154366        2.2700030077        2.5871919010
 C        -9.8498317276        3.0434633929        2.0655255654
 O       -10.7123086302        2.2945894631        1.7588861092
 C       -10.0468645476        4.5369328216        2.1146565979
 C       -10.9255954111        5.1396837664        1.0397709623
 C       -10.3781519231        5.0666499091       -0.3858608042
 O        -9.2016690579        4.8692911229       -0.5258838863
 C       -11.1963816617        5.2921668066       -1.7034999473
 C       -10.2512389291        6.1879360149       -2.5762960452
 O        -9.6499166506        5.6463121617       -3.4930049689
 C       -10.1991672395        7.6778791221       -2.3559304944
 C        -9.0006830840        8.2602543251       -3.1802714500
 C        -7.6313981870        8.2780100172       -2.4214855806
 O        -7.6814988651        8.0599059417       -1.2629435619
 C        -6.2682187752        8.4049675717       -3.1404741797
 C        -5.6135748310        7.0203368747       -2.7257594635
 O        -6.0036421613        6.0351087003       -3.2950082005
 C        -4.6864990842        6.9104947190       -1.5134907654
 C        -3.9021563482        5.6171579618       -1.5589982205
 C        -4.8994659705        4.3857233059       -1.6348245731
 O        -5.9822966304        4.4219358990       -1.0733410349
 C        -4.3274385361        2.9838155173       -2.2035494707
 C        -5.5529002850        1.9716902844       -2.2570380719
 O        -6.6844877446        2.2958911463       -2.5129150289
 C        -5.1525577636        0.5456262791       -2.0330962574
 C        -3.6561811542        3.1513429695       -3.5492965817
 C        -3.2705658712        2.4441223994       -1.2196209733
 C        -6.4178623174        8.5484060871       -4.7215290260
 C        -5.4820230139        9.6775167707       -2.6443529662
 C       -11.4363532851        3.8571466921       -2.2163808003
 C       -12.5201672675        6.0042963149       -1.3314947922
 C        -8.3136126982        2.6587665860        4.0412143013
 C        -7.3521268179        2.6323129995        1.6404157169
 C       -14.7778120040       -1.7594202495        1.6045219665
 C       -12.6563340331       -2.7126305888        0.4351891507
 C       -13.8888886095        2.8196709417        4.2591430827
 C       -16.3917136077        3.2631818583        4.0142581706
 H       -15.6356588598        6.7187745428        2.5653385681
 H       -16.8697576997        5.3863543213        2.4727115464
 H       -15.6379097760        5.6051179709        1.2011361086
 H       -13.7729443011        1.0556469645        2.4759654316
 H       -12.9936152038        2.0993065901        1.3955128434
 H       -14.2129577350        1.4661299264       -0.5735557250
 H       -15.3866261397        0.4720744667        0.3115871826
 H       -10.8237445007       -0.4130372799        0.9787850630
 H       -10.4589279684       -1.9474217636        2.0490576549
 H        -9.6857879361       -0.7256015996        3.7681802918
 H       -10.6992982708        0.6788275710        3.5304216417
 H        -9.1389310115        4.9877838240        2.1186332973
 H       -10.5919432374        4.7642472931        3.0451196391
 H       -10.9863572706        6.1803915913        1.2170384824
 H       -11.9720445853        4.7754751050        1.0763997440
 H       -10.0439164393        8.0658068779       -1.3110849608
 H       -11.1153912909        7.9744640185       -2.8446785244
 H        -9.3013466418        9.2719433912       -3.3268984295
 H        -8.8795739153        7.7711399659       -4.1469199084
 H        -5.3578866768        6.7855483773       -0.6933469149
 H        -4.1345611241        7.8102003709       -1.2759007897
 H        -3.0747573425        5.5793164478       -0.7906503612
 H        -3.2000208679        5.5785934275       -2.4100978891
 H        -6.1066754670        0.0215165866       -2.1717724204
 H        -4.6292578013        0.3930658139       -1.0193172038
 H        -4.3633874984        0.2499307440       -2.7624121557
 H        -4.1297960895        3.8749128559       -4.2297440524
 H        -3.8368623416        2.1413466433       -4.0843144957
 H        -2.5930106230        3.2377929991       -3.3071891338
 H        -3.7286813155        2.0563865536       -0.2800705652
 H        -2.6328061571        3.1814798172       -0.9313083530
 H        -2.7020876721        1.6040664011       -1.7186229152
 H        -7.2813142851        9.1530391009       -4.9755364729
 H        -6.3885977439        7.5181341560       -5.1041935023
 H        -5.5876589056        9.1326098432       -5.0879864709
 H        -4.4373279941        9.4573351193       -2.5057586008
 H        -5.8062279201        9.9166613384       -1.6101319712
 H        -5.5583023783       10.5628723457       -3.3004939773
 H       -11.4917977920        3.8396561044       -3.3295873521
 H       -12.3717635810        3.4570011677       -1.9114024533
 H       -10.6416854430        3.1750006041       -1.9110070246
 H       -13.0860850233        6.2751860782       -2.2140828490
 H       -12.3050097775        6.9451154596       -0.8170717555
 H       -13.0882916618        5.4073417265       -0.6704107471
 H        -7.7221611529        1.9294810645        4.5312095195
 H        -9.2497649145        2.7642739923        4.6297268255
 H        -7.7516692498        3.5326217479        4.2191079669
 H        -6.5092266594        1.9895084540        1.9343796084
 H        -7.0098858584        3.6860213987        1.7255322443
 H        -7.6247574984        2.2721606956        0.6601638174
 H       -14.7708132445       -2.4256871389        2.5094733422
 H       -15.1949401968       -2.3249645367        0.8345671856
 H       -15.3344117071       -0.8197940040        1.8398035607
 H       -13.0513424796       -2.7430408942       -0.5954245726
 H       -13.0971287953       -3.5764117158        0.8509674218
 H       -11.5798845807       -2.6165103331        0.4166359382
 H       -14.0463497437        1.6914555771        4.4054993615
 H       -13.8577933814        3.3552487060        5.1842665057
 H       -12.9298315560        2.9933530280        3.7858509499
 H       -16.3766725289        2.2701594076        4.6076456068
 H       -17.0991936856        3.2962130877        3.1810375986
 H       -16.4578992155        4.0738435462        4.7536853386
 Na       -7.9757545131        4.3293688411       -2.4976711990
