117

 C       -15.6792969490        5.5568333982        2.1213547382
 C       -14.6892388430        4.7881322779        2.9863812260
 O       -13.5593299971        5.1460625045        3.1567942132
 C       -15.1068852274        3.3232938766        3.4363130281
 C       -15.1476983489        2.6275240438        1.9710124361
 O       -15.9628343222        2.9044252957        1.1260346374
 C       -14.0584997087        1.6090401783        1.6362468030
 C       -14.1543408471        1.0136653039        0.2482325211
 C       -13.1939535861       -0.1033761274       -0.0199251294
 O       -12.3355277587       -0.0408995612       -0.8462153986
 C       -13.2178027686       -1.3660028886        0.9913480528
 C       -12.3579415539       -0.9334379969        2.2811791993
 O       -12.8499489950       -0.8832046253        3.3861755304
 C       -10.8116894070       -0.7071011552        2.0257713611
 C        -9.9188426688       -0.1069350406        3.0931156764
 C        -8.7411416758        0.5538139795        2.3750380093
 O        -8.0165582206        0.0285192520        1.5713028145
 C        -8.5473059653        2.1399048602        2.5051546720
 C        -9.7740580152        2.8992930024        1.9658151483
 O       -10.7686787355        2.4154308693        1.3710949000
 C        -9.8601232853        4.3981872573        2.1464274414
 C       -10.8383666878        5.0455586705        1.1023145033
 C       -10.1861421783        5.1660475258       -0.2984860825
 O        -8.9666983432        4.9632188006       -0.3733636152
 C       -11.1094199972        5.3469463375       -1.6324223991
 C       -10.3822005565        6.1217619390       -2.6945045888
 O        -9.7756981044        5.5039796936       -3.5710248885
 C       -10.3267350209        7.6557484565       -2.5599250954
 C        -9.0873909186        8.3268033013       -3.1753220472
 C        -7.8715367496        8.4181054158       -2.2956918630
 O        -7.9220593289        8.4777776188       -1.0613471039
 C        -6.4584020703        8.4800762192       -2.9540307143
 C        -5.7477387694        7.0762547311       -2.6587730493
 O        -6.1162943736        6.1024893049       -3.3307075896
 C        -4.7611240332        6.9052857538       -1.4355247749
 C        -3.8763501055        5.6401318220       -1.4845865562
 C        -4.8101153550        4.3773515236       -1.4455644353
 O        -5.9631072589        4.4376984327       -1.0662358231
 C        -4.2765987267        2.9152246537       -2.0354178403
 C        -5.4454670614        1.9330780376       -2.3128615008
 O        -6.5879382990        2.3806355632       -2.5410284784
 C        -5.4062104152        0.3999395455       -2.4088332055
 C        -3.7309816889        3.1894749879       -3.5236651718
 C        -3.2091002912        2.2877400740       -1.1573044412
 C        -6.4385032838        8.4950249115       -4.5749677232
 C        -5.7002405071        9.7266372030       -2.4237835923
 C       -11.3658177750        3.9646504731       -2.1075396786
 C       -12.5312531586        5.9776140406       -1.3404648647
 C        -8.1598830990        2.5841642453        3.9749911015
 C        -7.3545711414        2.5969069019        1.6072607579
 C       -14.6375221755       -1.7128086435        1.5939682227
 C       -12.6732764111       -2.6331151269        0.2841011484
 C       -13.9895801111        2.7943474374        4.4060381240
 C       -16.5324787566        3.2072613189        4.0795805113
 H       -15.4440419112        6.6279703481        2.1233394362
 H       -16.6652411180        5.3904176871        2.5294359881
 H       -15.5516481924        5.0641233622        1.0626630614
 H       -13.9648610901        0.8936564956        2.4180748086
 H       -13.0647630933        2.1015914420        1.7525627269
 H       -13.9731215249        1.8095764136       -0.5252192027
 H       -15.1431267161        0.6508836206        0.1597888707
 H       -10.7928633002       -0.1300976925        1.0944165284
 H       -10.5015006815       -1.7012207363        1.8730624283
 H        -9.6124958348       -0.9118887894        3.7411991968
 H       -10.3961343195        0.7354509027        3.6719859209
 H        -8.8214844193        4.8713274940        2.1883764671
 H       -10.3676494688        4.5073130542        3.1097149424
 H       -11.1234424120        6.1138994230        1.3774160921
 H       -11.7707293840        4.5001033693        1.0425665832
 H       -10.3968939145        7.8919952268       -1.5134493033
 H       -11.1636725737        8.0697810212       -3.1685523985
 H        -9.3884504571        9.3592549884       -3.5147963184
 H        -8.8219937856        7.7087109859       -4.0509455179
 H        -5.3190650373        6.8774089418       -0.4454095707
 H        -4.1807926484        7.8121151328       -1.3734371132
 H        -3.1853643997        5.6637378948       -0.6975812978
 H        -3.1339638261        5.6049365647       -2.2800534597
 H        -6.2820012612       -0.0056660515       -1.9090430936
 H        -4.4804290773       -0.0074292076       -2.0547804952
 H        -5.4407073126        0.1899634661       -3.4839932748
 H        -4.2662378810        4.0696978432       -3.8715272821
 H        -3.9506287445        2.4800834683       -4.2588590247
 H        -2.6697208755        3.3258086215       -3.3732771558
 H        -3.5210801260        2.0947172370       -0.1552844893
 H        -2.3301091488        3.0218190263       -0.9650793311
 H        -2.8315477985        1.4566378954       -1.6241050388
 H        -6.8014353065        9.5127472607       -4.8888194996
 H        -7.0569024546        7.6343488272       -4.9067015657
 H        -5.3791932286        8.4949246198       -4.9384940150
 H        -4.7370365221        9.9079007606       -2.8548175507
 H        -5.4676218257        9.6375318965       -1.3870782444
 H        -6.3343662408       10.5663247030       -2.5664080604
 H       -12.0946296438        3.9232182390       -2.8872792191
 H       -11.7966092795        3.2991553704       -1.3345427211
 H       -10.4062528024        3.5771460137       -2.4195592687
 H       -13.0698186514        5.9704763005       -2.2992390630
 H       -12.6008982301        6.9900560871       -0.9511861267
 H       -13.0367352269        5.2798665460       -0.5863621641
 H        -7.4617719720        1.7932443463        4.3504043874
 H        -8.9405164594        2.7464519436        4.6893287768
 H        -7.4640366134        3.4343088458        3.9985500236
 H        -6.4957926022        2.1384274971        2.0270375219
 H        -7.1990197678        3.6461294095        1.6923001778
 H        -7.5066450674        2.2433254285        0.6016930449
 H       -14.4682047273       -2.6036519368        2.1344528995
 H       -15.3515697230       -1.9961442721        0.7480895631
 H       -15.0257064035       -0.9388098638        2.2209252267
 H       -13.2392476780       -2.8125782326       -0.5996955935
 H       -13.0484466568       -3.4634733128        0.8817889993
 H       -11.6103736717       -2.4898624959        0.1854008756
 H       -14.3666270448        2.0375196601        4.9721916377
 H       -13.7054219457        3.6684557962        5.0328227316
 H       -13.1280855557        2.4417161498        3.8669106439
 H       -16.6762016478        2.2238897056        4.2575488663
 H       -17.2515751603        3.5705910076        3.3213821891
 H       -16.5029304660        3.7407220374        5.0049489946
 Na       -7.7847405150        4.3904323455       -2.6225477524
