117

 C       -13.7584473858        2.4382405620        0.9753176665
 C       -12.8780067316        1.9512527153       -0.1833518518
 O       -12.0883152476        2.6946033358       -0.6867679460
 C       -12.8725025757        0.3759760349       -0.7713608656
 C       -11.3334492802       -0.0213678426       -0.7644771544
 O       -10.6384949195       -0.0715171953       -1.7532125844
 C       -10.7149254523       -0.2921518279        0.5382357338
 C        -9.3188958464        0.3967330119        0.8071496855
 C        -8.0992449491       -0.6527750162        0.4479931547
 O        -8.2640696150       -1.8292396208        0.3145131320
 C        -6.7081272048       -0.0903494961        0.7443645101
 C        -6.6288441146        1.2554861048       -0.1371004638
 O        -6.6097910116        2.3662852350        0.3417822525
 C        -6.9450333005        0.9996231642       -1.6182750901
 C        -6.7230770058        2.2429896180       -2.4855176763
 C        -7.5619778939        2.1105786447       -3.8726050725
 O        -8.6649784446        1.6686413009       -3.9444499973
 C        -6.7209211763        2.6134069069       -5.1975300924
 C        -7.3286436391        4.1421077250       -5.2266255245
 O        -7.0574018477        4.8724360254       -4.3171760938
 C        -8.3798723837        4.5892279763       -6.1366419295
 C        -9.4970830655        5.5295908344       -5.6149062937
 C       -10.4038736573        4.8174500062       -4.6252894483
 O       -10.9280663525        3.6849695982       -4.8217111979
 C       -10.9109990847        5.7483401662       -3.4547542473
 C       -10.0168192621        5.3325293126       -2.1564428900
 O        -9.7726190800        4.1771314501       -2.0805125408
 C        -9.7304327169        6.4757480216       -1.0031694222
 C        -8.2897512653        6.6736120945       -0.4188802010
 C        -8.4637390467        7.2131304738        1.0127939367
 O        -8.9500305122        8.3108642849        1.2127256524
 C        -7.9563429429        6.2987037944        2.1097178073
 C        -9.2351310201        5.6067218034        2.7564594225
 O        -9.8717283188        4.9088080440        1.9744275249
 C        -9.6834670910        5.8088469944        4.1782009944
 C       -11.3018119838        5.7437658787        4.2809036129
 C       -11.8587250245        5.2266362248        5.6254103483
 O       -11.2199165681        4.4075252179        6.1803953155
 C       -13.3007708903        5.7331681855        5.9554242569
 C       -14.3736216622        4.9218454574        5.0354077389
 O       -14.3029144103        5.0171072160        3.8120634363
 C       -15.4586378489        3.9334811943        5.6255481456
 C       -13.5179600848        5.7321909513        7.4990357630
 C       -13.6199576249        7.2387609018        5.4602441160
 C        -6.9835082944        5.1699214302        1.5989449160
 C        -7.1967708116        7.2102933978        3.0960781353
 C       -10.7769397798        7.2278533671       -3.7077203863
 C       -12.3486587446        5.3730679614       -3.1499353475
 C        -5.2585634733        2.9598630165       -5.0574983820
 C        -7.1625343982        1.8514086387       -6.5517658348
 C        -6.5865605763        0.0871733225        2.1334191388
 C        -5.6514105991       -1.1994878254        0.1254576475
 C       -13.8736459279       -0.5625838841        0.0355768217
 C       -13.2708858495        0.4828971050       -2.2591553301
 H       -14.5809847701        1.7119428928        1.0732423261
 H       -14.1861433429        3.4414348547        0.8411533121
 H       -13.1148748637        2.3108664812        1.9015927149
 H       -10.2541842256       -1.3899533205        0.4603807806
 H       -11.1750070319       -0.3037641921        1.5135065100
 H        -9.2576628007        0.3335359337        1.9205548155
 H        -9.1174560294        1.4176945853        0.4805666572
 H        -7.8787844180        0.6068242020       -1.8180026254
 H        -6.3228471104        0.1630003053       -1.8620746423
 H        -5.7155413332        2.4010754561       -2.9079140016
 H        -7.1089965713        3.1928539758       -2.1525927861
 H        -8.8917835304        3.7191509499       -6.5453007591
 H        -8.0119472993        4.9651115091       -7.0995434520
 H       -10.0045574259        5.9247097565       -6.6222715335
 H        -9.1666096574        6.4547683441       -5.1335312177
 H       -10.3175337696        6.0177731884       -0.1091360025
 H       -10.1010584330        7.4294565370       -1.2401703928
 H        -7.6564649174        7.3488331079       -0.9512375104
 H        -7.7490168329        5.6622785491       -0.5226305348
 H        -9.2891808150        6.8637636994        4.4258882279
 H        -9.0390166846        5.0698156174        4.7143671073
 H       -11.5624527510        4.9321349227        3.5640140907
 H       -11.7815851241        6.6072163647        3.8988270198
 H       -16.1731357052        3.7543390728        4.8748157325
 H       -15.8528043772        4.3005425605        6.5845876416
 H       -14.7676769294        2.9743175172        5.6932052726
 H       -14.4072101382        6.1573267461        7.9218323242
 H       -12.7425374737        6.3243996192        7.9997092621
 H       -13.4433648784        4.6951463144        7.9980307211
 H       -13.1858416497        7.4735691409        4.5372321187
 H       -13.1787998695        7.8173308964        6.2040301831
 H       -14.6008057984        7.5200780288        5.4691774061
 H        -6.8422227651        4.6021201623        2.5703943385
 H        -6.1044739998        5.6124502211        1.1048888126
 H        -7.4604320229        4.5304595188        0.8324676427
 H        -6.7146602733        6.5452992622        3.8810330016
 H        -7.8756184406        7.9885332089        3.5092284645
 H        -6.5114716943        7.6753423360        2.4097083853
 H       -11.1257282916        7.8318214538       -2.8014595640
 H       -11.4866426461        7.4142706727       -4.4566906209
 H        -9.7431140181        7.4983788154       -3.9088984392
 H       -12.8719718524        5.9391626110       -2.3947115341
 H       -12.3002801191        4.2721947446       -2.9114850114
 H       -12.9639573373        5.4736236614       -4.0296778307
 H        -5.2743296625        3.6836860774       -4.2565589354
 H        -4.7722350072        3.3983725238       -5.8973595954
 H        -4.6193069406        2.1667561761       -4.6205866932
 H        -6.5849452570        0.9930763040       -6.8774883323
 H        -6.9006251770        2.5745882144       -7.3021979703
 H        -8.2077272143        1.6260324102       -6.6468988155
 H        -5.5641738991        0.4850264391        2.4189363130
 H        -6.8965406714       -0.7455028120        2.6811179792
 H        -7.2975201212        0.8134241821        2.3513953222
 H        -5.5774891074       -1.9258183491        0.9408433597
 H        -4.7120999022       -0.8178001393       -0.2686417233
 H        -6.0788389058       -1.6603896601       -0.7702993959
 H       -14.8067546867       -0.4914979890       -0.5503533437
 H       -14.2026709480       -0.2186832166        0.9486987631
 H       -13.5954883081       -1.5753142591        0.2790724088
 H       -14.2647740449        0.9170614471       -2.4181362276
 H       -13.3813077905       -0.5678170585       -2.4972529644
 H       -12.4619208730        1.0169043491       -2.8181424462
 Na      -10.6933766783        2.3483613845       -2.7239978030
