117

 C       -15.7568308648        5.5829768061        2.1733493395
 C       -14.7044361993        4.7817549856        2.8943954141
 O       -13.6044121339        5.2355726064        3.1920563623
 C       -15.0342544913        3.3092535414        3.3436329542
 C       -15.0816669322        2.6097501822        1.9404597472
 O       -15.9017392568        3.0171551295        1.1551586235
 C       -14.0274231254        1.6409102250        1.5684918202
 C       -14.2707735067        0.9965555884        0.2419022039
 C       -13.2905852775       -0.2051985718        0.0604997933
 O       -12.4330988009       -0.1483335685       -0.7833554723
 C       -13.2614060930       -1.4209960914        1.0889918626
 C       -12.3991918616       -1.0324300053        2.2856309119
 O       -12.8527755788       -0.7965928474        3.3782174050
 C       -10.7644965258       -0.8233351600        1.9544334589
 C        -9.9665342803       -0.1390816302        3.0512753741
 C        -8.7939444115        0.7033086485        2.3395146769
 O        -8.0757788658        0.0624203669        1.5961216700
 C        -8.5008176797        2.2035766553        2.5318179201
 C        -9.8846385880        2.9437276714        2.0339478103
 O       -10.7548234440        2.2586156788        1.5481241054
 C        -9.9983862053        4.5350348668        2.1688493714
 C       -10.9125280602        5.1654761500        1.1329860083
 C       -10.2718023808        5.1198391277       -0.2719222720
 O        -9.1026615972        4.9473579657       -0.4671175708
 C       -11.1652959497        5.2449758805       -1.5964472396
 C       -10.3353748496        6.1583937360       -2.6738268208
 O        -9.7443122157        5.6074362323       -3.5664307374
 C       -10.2834739201        7.6895909424       -2.5190411322
 C        -9.0391138454        8.3366246285       -3.2228258493
 C        -7.7504334059        8.3294170812       -2.3582300748
 O        -7.7074557449        8.2585792891       -1.1280595939
 C        -6.3315047748        8.4751374084       -3.0657754502
 C        -5.7309900886        7.1431856094       -2.6688826812
 O        -6.0142165299        6.1046617788       -3.2678639723
 C        -4.8097029374        7.0319957777       -1.4303388499
 C        -3.9812502911        5.6632514496       -1.5507061995
 C        -4.7825401463        4.3572034176       -1.5496975172
 O        -5.9175627041        4.4699575410       -1.1412362096
 C        -4.2430525665        2.9430567181       -2.0683931410
 C        -5.5587084040        1.9505137007       -2.2628406624
 O        -6.6800257729        2.3375080582       -2.5233721700
 C        -5.2556740523        0.4099723674       -2.2213765969
 C        -3.6655951827        3.1538481036       -3.5571989376
 C        -3.1911169485        2.2832596966       -1.1856189249
 C        -6.4058640141        8.4868182501       -4.6339461314
 C        -5.5906021787        9.6779124015       -2.5239518021
 C       -11.4140622911        3.8213252601       -2.1773738428
 C       -12.5390054443        6.0172288096       -1.3485013496
 C        -8.1512362291        2.6684114675        4.0030303992
 C        -7.2878147147        2.5936022148        1.6680019343
 C       -14.6809995669       -1.6555557572        1.5855161733
 C       -12.5916071492       -2.6555977425        0.4181107747
 C       -13.9627271408        2.8577606332        4.3596851382
 C       -16.4447063725        3.2248024594        4.0728581069
 H       -15.4577827790        6.6442367737        2.3744375566
 H       -16.8118622060        5.3732712402        2.4705467048
 H       -15.5214613474        5.3268510609        1.1509417205
 H       -13.8598573850        0.9649757392        2.3632282494
 H       -13.0689776335        2.1865105153        1.5956386655
 H       -14.1985235982        1.6755084953       -0.5616147203
 H       -15.2863546259        0.6018559412        0.3390761613
 H       -10.7791015250       -0.1717963363        1.1066547551
 H       -10.3499591477       -1.8377143888        1.7679825811
 H        -9.5681173084       -0.8728231132        3.7417570511
 H       -10.6347843997        0.5774590171        3.5976802238
 H        -8.9714776212        4.8555857692        1.9862017403
 H       -10.3190424869        4.8158400961        3.0911839278
 H       -11.2433276480        6.2160775364        1.3366527557
 H       -11.8193209818        4.5994855639        1.0542631592
 H       -10.1723509669        7.9221337146       -1.4844646508
 H       -11.2296065798        8.0862279695       -2.9950439347
 H        -9.3366375245        9.4061186381       -3.5009432728
 H        -8.7867709899        7.7841136329       -4.0863721388
 H        -5.2534266515        7.1194130531       -0.5131806392
 H        -4.1035690223        7.8844419063       -1.4795958052
 H        -3.2304527963        5.6467099065       -0.7071432302
 H        -3.2341342916        5.6923776215       -2.2892253117
 H        -6.2907049710       -0.0291146693       -1.9765099862
 H        -4.4447170550        0.1279583526       -1.5521797398
 H        -4.9362238007        0.0753723154       -3.2159560203
 H        -4.0897271549        4.0680918461       -4.0108326678
 H        -4.0008764686        2.3811844083       -4.2576011567
 H        -2.5592669095        3.1171136855       -3.3788840989
 H        -3.5994007512        1.8634353976       -0.3175342252
 H        -2.4226821032        2.9381642978       -0.8009162903
 H        -2.7459467326        1.4907942553       -1.8097127283
 H        -7.2121743344        9.2265479576       -4.9582756296
 H        -6.6586679750        7.4366975719       -4.8126236409
 H        -5.4936940840        8.8693093168       -5.1514992340
 H        -4.4853535633        9.5635359837       -2.5949114533
 H        -5.7325261317        9.7357184705       -1.4846655739
 H        -5.8893822755       10.5706543031       -2.9928812273
 H       -11.7279389637        3.9556006900       -3.1982640820
 H       -12.2143978553        3.2296191238       -1.7497343519
 H       -10.4767012759        3.2572831570       -2.1835760085
 H       -13.0677193806        6.1292571506       -2.3083789686
 H       -12.4566283320        7.0587075689       -0.9087327837
 H       -13.1130940402        5.4554589824       -0.6580339988
 H        -7.6064788449        1.8822542171        4.4414778535
 H        -8.9092349864        2.9704629073        4.6632049240
 H        -7.3412418470        3.4412687858        4.0291883789
 H        -6.4545574424        2.0003561083        2.0998580019
 H        -7.0306625733        3.5859849243        1.7838055827
 H        -7.4162327072        2.2384962217        0.6629820743
 H       -14.6675393175       -2.3881505214        2.4040502227
 H       -15.1457793371       -2.1548812358        0.7276368565
 H       -15.1921424840       -0.7485582436        1.8688929446
 H       -12.9598412234       -2.6833602193       -0.5788949085
 H       -13.1193028941       -3.4993741752        0.8096240717
 H       -11.5237418181       -2.5861886412        0.4879694247
 H       -14.3265041054        1.9724741548        4.8807341537
 H       -13.8554279848        3.6759774983        5.0055178892
 H       -12.9888783567        2.6320446521        3.9269881925
 H       -16.4093661085        2.1906480574        4.5178480173
 H       -17.2183260141        3.3772355000        3.3718251440
 H       -16.3580206334        3.9276211533        4.9235363723
 Na       -7.8991554576        4.3195648345       -2.5968618131
