117

 C       -15.9526209536        5.9981926903        2.6301827510
 C       -14.6706215995        5.1486810385        2.6503017061
 O       -13.6193138205        5.5533058691        2.1622059314
 C       -14.8189803210        3.6681340420        3.1475378821
 C       -14.9815863194        2.7905500375        1.8579506975
 O       -15.4493750255        3.2726724564        0.8570230608
 C       -14.3497523646        1.3670427391        1.8049641944
 C       -14.7521517489        0.5309346455        0.6051644460
 C       -13.5922059569       -0.5185593765        0.3738330350
 O       -12.8714121305       -0.5139648997       -0.6327008954
 C       -13.3145018192       -1.6524674416        1.4453899706
 C       -12.2873592335       -0.9658130051        2.4493580033
 O       -12.7417071612       -0.6920140813        3.5339921088
 C       -10.8613973713       -0.6351263467        1.9341885113
 C        -9.9621543878        0.0912473115        2.9624350433
 C        -8.9325864539        0.9432775374        2.3077198414
 O        -8.2032019812        0.4582365870        1.4801290529
 C        -8.8891966777        2.4497349013        2.7641570623
 C       -10.1168240372        3.1449318651        2.0660564559
 O       -10.9294534091        2.4159024728        1.6239979433
 C       -10.1422485353        4.6783700085        2.0701932745
 C       -10.7895285555        5.4217004208        0.8970654291
 C       -10.2163092270        4.8915080883       -0.4867318112
 O        -9.3282072222        4.0518072892       -0.5953725417
 C       -10.9678996525        5.4093452487       -1.7868888744
 C       -10.0645060943        6.4544857898       -2.5155937053
 O        -8.9909191854        6.0026191789       -2.9536886923
 C       -10.2226752162        7.9520263679       -2.4954586259
 C        -9.0028052230        8.5288563587       -3.2431730105
 C        -7.6461361611        8.0102714699       -2.6438595305
 O        -7.5426947214        7.7743705758       -1.4833188508
 C        -6.2998390728        8.0032269655       -3.5290368664
 C        -5.5117720644        6.7644295401       -2.9931814426
 O        -5.7746182351        5.6772869273       -3.4944034490
 C        -4.5261726364        6.8514333898       -1.8536335240
 C        -3.7612847880        5.4729164232       -1.7700421472
 C        -4.7827708710        4.3128962722       -1.5346870972
 O        -5.7026695755        4.4546321034       -0.7057111958
 C        -4.4764957912        2.8674690271       -2.1669976098
 C        -5.6630851675        1.9331849971       -1.9152768905
 O        -6.7870000005        2.2972866633       -2.2028417732
 C        -5.5153302770        0.5724252272       -1.2803485360
 C        -4.2546032470        2.9516646942       -3.7241541136
 C        -3.1527060504        2.2760885028       -1.5355535944
 C        -6.5367626066        7.7522574912       -5.0862286787
 C        -5.5044817190        9.3307962520       -3.3296318851
 C       -11.2220535303        4.2742892123       -2.7704694792
 C       -12.2522834175        6.2051917688       -1.2730382198
 C        -9.0878625602        2.6348543998        4.2820912359
 C        -7.5690905163        3.1016086521        2.2737454582
 C       -14.4821110241       -2.1264862509        2.3475037643
 C       -12.6913253261       -2.7888815121        0.7358457858
 C       -13.5353101082        3.3118344108        3.9767865889
 C       -16.0919083825        3.4109144452        4.0303427718
 H       -15.7708377617        6.7950307444        1.9065364986
 H       -16.2580337959        6.3981497278        3.6163727563
 H       -16.6843928066        5.3266453564        2.2949777630
 H       -14.5984625383        0.7848528741        2.7069386606
 H       -13.2711442772        1.4774244425        1.6765816786
 H       -14.8867417905        1.1689091297       -0.2411829863
 H       -15.7721664987        0.0141087964        0.7458029623
 H       -10.9939533166       -0.0976284644        1.0471676620
 H       -10.3997753017       -1.6128689984        1.6832482419
 H        -9.3943554872       -0.6269915691        3.5816796092
 H       -10.5195522252        0.7022141810        3.6892145162
 H        -9.1711058220        5.0245975416        2.2593056887
 H       -10.7326838296        4.9171686488        3.0503535344
 H       -10.6686766512        6.5270513374        0.8821669077
 H       -11.8601921428        5.1502994327        0.9375213075
 H       -10.0818078456        8.2575232632       -1.4664349543
 H       -11.1986061060        8.3154163715       -2.8901586032
 H        -9.1689532716        9.6356992760       -3.0689814651
 H        -9.0345054764        8.4584468149       -4.3187926642
 H        -5.0519766097        7.0210704264       -0.9127917377
 H        -3.8056245547        7.7259255123       -2.1593574422
 H        -3.0948006951        5.6214441072       -0.8891206551
 H        -3.2366316673        5.2762941434       -2.6590261893
 H        -4.5742265639        0.1739398755       -1.4844773413
 H        -6.3880103280       -0.0074752723       -1.6368557187
 H        -5.7491498455        0.6059696501       -0.2307819466
 H        -4.6938100707        3.8202164475       -4.0882950143
 H        -4.4821285125        1.9872721341       -4.1770851279
 H        -3.2252728252        3.1537663060       -3.8307255109
 H        -3.3400250324        2.0033909926       -0.4707125844
 H        -2.3497436640        2.9217548895       -1.6908899833
 H        -2.8448367864        1.3348833052       -2.0956123097
 H        -7.2851443890        8.3998156373       -5.4640063007
 H        -6.8352729233        6.7233114038       -5.1564166960
 H        -5.5410872154        7.8720478624       -5.4066511213
 H        -4.5133156068        9.1793743888       -3.7762540784
 H        -5.4514769920        9.5548228283       -2.2333212668
 H        -5.8962847160       10.2698257798       -3.7859237405
 H       -11.5929839643        4.6747092405       -3.7426226539
 H       -11.7991448459        3.4591454960       -2.3924679567
 H       -10.2694316347        3.8040128096       -3.0590720954
 H       -12.7563941797        6.5581689910       -2.1532884569
 H       -11.9689376247        7.0959650057       -0.7191047627
 H       -12.9691175479        5.6395210865       -0.7616558020
 H        -8.4991647529        1.9275823112        4.8509938172
 H       -10.0941402763        2.4628546331        4.7499113893
 H        -8.7349677670        3.5991295178        4.6716439599
 H        -6.7261006879        2.5698438988        2.7919994685
 H        -7.5284974072        4.1813603639        2.5002645316
 H        -7.3985110227        3.0289111894        1.1942751582
 H       -14.0975144898       -2.7457773663        3.2006806313
 H       -15.1344033176       -2.7259147124        1.7834041497
 H       -15.1171030109       -1.2949049790        2.7161812826
 H       -13.2952174594       -2.8439777989       -0.1843353033
 H       -12.5992405997       -3.6814931475        1.3395776059
 H       -11.6864044374       -2.5508922293        0.3724650948
 H       -13.3179052664        2.1941274550        4.1797339971
 H       -13.6533169592        3.6788757745        4.9719700591
 H       -12.6552031091        3.7895327370        3.5431733710
 H       -15.9137928782        2.4478487769        4.5194366252
 H       -16.9432897635        3.3706773550        3.3827303690
 H       -16.0976945514        4.2252111803        4.6659704059
 Na       -7.6020086095        4.3046371938       -2.2335191679
