117

 C       -15.8102876672        5.7864219440        2.3815036380
 C       -14.7003049842        5.0363098483        3.0250244016
 O       -13.6113538352        5.5322557877        3.1197446249
 C       -14.9618953995        3.4521106267        3.3074506989
 C       -15.0600503852        2.7134968316        1.8946531405
 O       -15.9472873133        2.9948349098        1.1065358001
 C       -13.9421531565        1.6903386055        1.5839346820
 C       -14.3252721186        0.8479174491        0.2866407047
 C       -13.2935847329       -0.3256436889        0.0945843855
 O       -12.5135505129       -0.3775621321       -0.8082354654
 C       -13.2889120914       -1.5157887921        1.1618260329
 C       -12.2507760820       -0.9647401288        2.3445723699
 O       -12.6986314873       -0.6597985303        3.4339393147
 C       -10.7713235221       -0.8805367990        1.9993408912
 C       -10.0933634027        0.1194475389        3.0060213178
 C        -8.8604524468        0.6783947983        2.3771135638
 O        -8.0775848000        0.1169694860        1.6585635093
 C        -8.6139595022        2.2535593306        2.5689090516
 C        -9.8885349299        3.0238777688        2.0698356751
 O       -10.9238174283        2.4314807083        1.7624914672
 C        -9.9781304183        4.5917793624        2.1209066977
 C       -10.9703190670        5.1149559466        1.0096336120
 C       -10.2898782134        5.0432835445       -0.3776494063
 O        -9.1022585428        4.6716425102       -0.5004283402
 C       -11.2199538966        5.3300924321       -1.6535551186
 C       -10.3175315355        6.1753136837       -2.6374380679
 O        -9.5136357124        5.6025490473       -3.3862401175
 C       -10.1073111492        7.6891933135       -2.3243893876
 C        -8.9842661302        8.2931886931       -3.2033622725
 C        -7.6552665657        8.1776388116       -2.4201692212
 O        -7.6073536069        7.9337002381       -1.2330293546
 C        -6.2182309263        8.3222074960       -3.2282456036
 C        -5.5876554691        6.9586122009       -2.8423077950
 O        -5.9901101938        5.9538873078       -3.4226720773
 C        -4.6518443005        6.7953890924       -1.6369245576
 C        -3.9612546771        5.4959190242       -1.5873666042
 C        -4.9100477873        4.3644809775       -1.6091469980
 O        -5.9631658027        4.4702685997       -0.9848158493
 C        -4.3787056354        3.0286158089       -2.2299669850
 C        -5.5156941943        1.9496028002       -2.2869879061
 O        -6.6911932599        2.2905621767       -2.5374699198
 C        -5.1678812186        0.5383717189       -1.9360699477
 C        -3.7295813899        3.1914060938       -3.6461293270
 C        -3.3187575746        2.6675701717       -1.1360361003
 C        -6.3889925517        8.5227777877       -4.7815561479
 C        -5.4561965094        9.6224840735       -2.6879621817
 C       -11.4837457899        3.9693862303       -2.3427773379
 C       -12.5754239097        6.0348353979       -1.3519031067
 C        -8.4311418079        2.5997198749        4.0534730956
 C        -7.3785766008        2.7564921822        1.6499387172
 C       -14.6395664085       -1.9088717283        1.7262158055
 C       -12.7664905805       -2.8320384989        0.4465784919
 C       -13.8202100067        2.8708850835        4.1397081284
 C       -16.3771101886        3.2730112397        3.9623610707
 H       -15.7218086787        6.7618515903        2.7385821848
 H       -16.7126009276        5.3314516827        2.6421318074
 H       -15.6641905540        5.6793768188        1.2833388297
 H       -13.8555288580        1.0219563954        2.4776829361
 H       -12.9472963321        2.1385749231        1.4951622870
 H       -14.3689571284        1.5072191568       -0.6364981489
 H       -15.3084643671        0.4273234418        0.4590369996
 H       -10.7281550839       -0.4442137202        0.9618193003
 H       -10.4330604594       -1.9010767032        2.1364660634
 H        -9.8560127386       -0.4035304748        3.9532771222
 H       -10.7343974282        0.9216209890        3.3196385086
 H        -9.0017313706        5.1391577706        2.0863762390
 H       -10.4829486301        4.7778256725        3.1299339650
 H       -11.3136236532        6.1148443079        1.1688327958
 H       -11.8810787348        4.4977194943        0.9148780100
 H        -9.5562785913        7.7055372746       -1.3429286290
 H       -11.0379529199        8.2158658333       -2.3066943362
 H        -9.1721277471        9.2928481714       -3.4410186654
 H        -8.8127464754        7.7110743477       -4.1514112940
 H        -5.3353833912        6.8871167204       -0.6999976438
 H        -3.9493887377        7.5970567060       -1.5562498248
 H        -3.2460870058        5.4540510763       -0.7956173567
 H        -3.1835993237        5.4432232478       -2.4326458945
 H        -5.8397253375       -0.1245606981       -2.4344511959
 H        -5.2247703683        0.5367940338       -0.8297459534
 H        -4.0818147293        0.3441534853       -2.0849297827
 H        -4.4695775106        3.5116801730       -4.3904583854
 H        -3.5258464300        2.1512895788       -3.9350738680
 H        -2.8023082100        3.7373271646       -3.5692133761
 H        -3.7114378029        2.6291329589       -0.0816387291
 H        -2.5304348864        3.5013070309       -1.1847692113
 H        -2.8449772277        1.7418537229       -1.3451799401
 H        -7.1257059302        9.2537731312       -4.9708686625
 H        -6.4829477818        7.5427965145       -5.2154243268
 H        -5.4556168076        8.9390700565       -5.0964645831
 H        -4.3838501424        9.4885526827       -2.6964360619
 H        -5.7165609701        9.7934602087       -1.5988570447
 H        -5.6446288289       10.5563801795       -3.2940660670
 H       -11.4696332492        4.0532205995       -3.4397611498
 H       -12.4717289972        3.5441346619       -2.0959347824
 H       -10.7559911680        3.2042899036       -2.0731558914
 H       -12.9554541699        6.3036085613       -2.3068593361
 H       -12.4288563858        6.9279327680       -0.8535409873
 H       -13.3324735591        5.4295931771       -0.8037132379
 H        -7.5834897776        2.0405459584        4.5135551912
 H        -9.3397628974        2.3403597853        4.6463473544
 H        -8.2453557113        3.6044866677        4.3102902578
 H        -6.5200783705        2.1600582132        1.9254471472
 H        -7.1126119041        3.8358152447        1.9058312163
 H        -7.5408033524        2.5270010138        0.5739924072
 H       -14.5826829464       -2.6808865502        2.4792458484
 H       -15.2147347116       -2.3317993883        0.8827551029
 H       -15.0742153557       -1.0170357831        2.1936005323
 H       -13.4195549448       -2.9789632245       -0.4275160864
 H       -12.9690447658       -3.7008119359        1.0896730660
 H       -11.7345502114       -2.6904032323        0.0916737113
 H       -13.8269070958        1.7986791063        4.0754377616
 H       -14.0153677095        3.2051002609        5.2201197827
 H       -12.8251875179        3.2887135363        3.8976574683
 H       -16.3656897511        2.3656910407        4.4835563755
 H       -17.1475421028        3.3164850383        3.1113625682
 H       -16.4432488529        4.0769983546        4.6946220795
 Na       -7.9379821337        4.3438496296       -2.3917395857
