117

 C       -16.0642605437        6.1906176007        2.4504024732
 C       -14.7726041223        5.3898777143        2.3273298503
 O       -13.8356731657        5.8349758400        1.6960234285
 C       -14.6792178944        3.8961864240        2.9826695166
 C       -14.7831064859        2.7898555630        1.8553528416
 O       -15.2430098694        3.0279398662        0.7499766445
 C       -14.3061992148        1.3123237956        2.0493423333
 C       -14.8990195150        0.3403072369        1.0369365548
 C       -13.8916220097       -0.6789978086        0.5742582515
 O       -13.4159904175       -0.6176010528       -0.5306520942
 C       -13.3713803449       -1.7891956821        1.5852653237
 C       -12.3114980072       -1.1088622003        2.5612002532
 O       -12.5760277387       -0.8636360057        3.7311260884
 C       -10.9780370270       -0.5040452986        1.9371335448
 C       -10.0600354424        0.0688040921        2.9628597020
 C        -8.9484758359        1.0824044956        2.2901556998
 O        -8.0581240273        0.6571872929        1.5665609691
 C        -8.9175363442        2.6033820528        2.8125983885
 C       -10.0278773194        3.2915170096        2.0479006440
 O       -10.9501572663        2.5716634515        1.5684775189
 C       -10.1136825618        4.8224972905        2.0447518173
 C       -10.8851209804        5.3621851389        0.8749954194
 C       -10.1599903205        5.3330841810       -0.4839164905
 O        -9.0372810511        4.9895224285       -0.6029173346
 C       -10.9169798974        5.6483126185       -1.8537555683
 C        -9.9064631059        6.4919791910       -2.6358325179
 O        -8.8830293480        6.0166805431       -3.0863969298
 C       -10.0693183816        8.0778728912       -2.6351760598
 C        -8.8423803708        8.8660936825       -3.1512665035
 C        -7.5129926887        8.2442660584       -2.6481215972
 O        -7.2600224386        8.3325424996       -1.4324694116
 C        -6.3570996583        7.7790267213       -3.7231147338
 C        -5.6477209146        6.4471332882       -3.1676743736
 O        -6.0798165076        5.3788144362       -3.5431807127
 C        -4.4382396668        6.5431356953       -2.2312733199
 C        -3.8030442572        5.1465811598       -1.8940852748
 C        -4.7323444076        4.0796798461       -1.4408789215
 O        -5.6071500370        4.3230440968       -0.6519731776
 C        -4.5397235300        2.5815005976       -2.0345282175
 C        -5.7541445409        1.6814979652       -1.5370074275
 O        -6.9043957311        1.9047546311       -1.8701190445
 C        -5.4307623746        0.5383000912       -0.5749809286
 C        -4.5191583733        2.7019968377       -3.5882670365
 C        -3.1354783653        2.0756143289       -1.5922659747
 C        -6.9919898040        7.6016167388       -5.1601349175
 C        -5.3412231205        8.9781329245       -3.9193278634
 C       -11.1335640294        4.2677685527       -2.5342821427
 C       -12.3333006531        6.2098829447       -1.8120261890
 C        -9.1963681630        2.6379834682        4.3306631882
 C        -7.4942025521        3.1455683434        2.6045055345
 C       -14.4964916341       -2.4431320388        2.4551030609
 C       -12.6843081714       -2.9232498581        0.7896293015
 C       -13.3426456529        3.7485204575        3.7154210591
 C       -15.8484605383        3.6823452581        3.9417600873
 H       -15.7627921137        7.0629451672        1.9301280213
 H       -16.2893534394        6.4045531648        3.4489228172
 H       -16.8780522549        5.7090861253        1.8413589784
 H       -14.3913891031        0.8649916819        3.0627465305
 H       -13.2341222871        1.4003874408        1.8156699080
 H       -15.1781554752        0.9738517750        0.1515370137
 H       -15.8010478075       -0.1251243336        1.4456334166
 H       -11.4015148149        0.2303861830        1.2812237750
 H       -10.4755303936       -1.0895269269        1.2177106382
 H        -9.3872239434       -0.7138078530        3.3745706254
 H       -10.5569267014        0.6067932973        3.7505092032
 H        -9.0875834108        5.2429032275        2.0653568329
 H       -10.5796139241        5.2135380082        2.8821032619
 H       -10.9636708858        6.4283189868        1.0814483709
 H       -11.9484874027        4.9649413025        0.8216128512
 H       -10.1631627637        8.3650970008       -1.5461650523
 H       -11.0105210752        8.3097248915       -3.0459573691
 H        -8.8411318593        9.8727007122       -2.7968075118
 H        -8.9848937194        9.0202948822       -4.2745987830
 H        -4.8245888429        6.9282698226       -1.2276079021
 H        -3.7666185023        7.2265322560       -2.6931810310
 H        -3.2190333646        5.3687377798       -1.0557204574
 H        -3.2622158797        4.7954361724       -2.7872676344
 H        -5.6499164387        0.8629492040        0.4617484557
 H        -4.4426604792        0.2089102654       -0.7500420358
 H        -6.0954150193       -0.2977728172       -0.7834511960
 H        -5.5224554246        2.3487168881       -3.9281822112
 H        -3.7020591781        2.1843347514       -4.0196698912
 H        -4.4984989990        3.7545487873       -3.8695738470
 H        -3.0845356559        1.9110517041       -0.5209956662
 H        -2.3077411282        2.8709358211       -1.7705845272
 H        -2.9489077432        1.1852012322       -2.1115461326
 H        -7.3999666100        8.5459026955       -5.3633761265
 H        -7.7081417639        6.8212161859       -5.0848343791
 H        -6.1692175784        7.5620932491       -5.8237792662
 H        -4.4113288547        8.6478698345       -4.4002139766
 H        -4.9811974886        9.3934003612       -2.9517774550
 H        -5.8859630379        9.7247867537       -4.5666557095
 H       -11.9384515056        4.3584014954       -3.2641375963
 H       -11.5610328593        3.5025362324       -1.8603396892
 H       -10.2806362821        3.8512508261       -3.0558870802
 H       -12.6455941412        6.3154697802       -2.8172646827
 H       -12.3771156434        7.1333056717       -1.3436221534
 H       -13.0058907437        5.5646206734       -1.2175686512
 H        -8.6031597849        1.8997851153        4.9399422161
 H       -10.2473701842        2.4537500114        4.5715504093
 H        -8.9966819231        3.5748916763        4.7941460784
 H        -6.6646734040        2.5871982654        2.9864531252
 H        -7.3493589350        4.1990781027        3.0179546986
 H        -7.3407322778        3.2681196315        1.5025959027
 H       -14.1154420122       -3.3234317337        2.9322529933
 H       -15.4603477328       -2.6529610671        1.9185031531
 H       -14.8419932288       -1.7976738198        3.2540673518
 H       -13.2706830619       -3.8530926736        0.8131322078
 H       -11.7370632084       -3.2475500033        1.2638782037
 H       -12.4116438251       -2.5595204561       -0.2028845272
 H       -13.3339868467        2.9190261763        4.3670470369
 H       -12.9608927657        4.6871030971        4.2702089107
 H       -12.5376430353        3.4607422829        3.0013531041
 H       -15.8901806610        2.7016308990        4.2678254336
 H       -16.6530064180        3.8565410003        3.2243243866
 H       -15.7935233059        4.3957261248        4.7521667585
 Na       -7.5162024530        4.1086097425       -2.1589558941
