117

 C       -15.9524498938        6.0558123438        2.5276941901
 C       -14.6744378857        5.1988738973        2.4187731974
 O       -13.6896115103        5.5707855102        1.7733006735
 C       -14.7135609119        3.8278174535        3.0524928425
 C       -14.8433485529        2.7619988507        1.8015960122
 O       -15.2673657854        3.1233426564        0.7286335279
 C       -14.3397283907        1.4073844097        2.1260738006
 C       -14.8489201868        0.3807670899        1.0329517636
 C       -13.7377089114       -0.5985710008        0.5606919531
 O       -13.2268409916       -0.5278977080       -0.5738815333
 C       -13.3487941280       -1.7097822923        1.5129028578
 C       -12.3206355406       -0.9774444435        2.4461762679
 O       -12.6113336680       -0.7692610196        3.5859042247
 C       -10.9735133022       -0.5317981714        1.8813610706
 C        -9.9984896576       -0.0493196905        3.0008738573
 C        -8.9829985567        0.9240854820        2.3066769446
 O        -8.1891567449        0.5660381009        1.4755006277
 C        -8.8922316848        2.4469214284        2.8347404000
 C        -9.9957421639        3.3035679843        2.0738159345
 O       -10.8345897121        2.6233745052        1.6089517658
 C       -10.0110717844        4.8457499941        1.9605014594
 C       -11.0221516191        5.3316197004        0.8771797236
 C       -10.3302294993        5.1810759849       -0.5061320795
 O        -9.2174359909        4.6538933024       -0.4277614380
 C       -10.9419045075        5.5987726024       -1.9089005580
 C        -9.9695536865        6.5346674873       -2.6272899226
 O        -8.9530093799        6.0517586549       -3.0839290584
 C       -10.0877107011        8.0915271791       -2.5491786402
 C        -8.9084701003        8.6947184661       -3.2748034319
 C        -7.5392742940        8.1507180006       -2.6498540165
 O        -7.4144652568        8.0233383301       -1.4661291476
 C        -6.3163886340        7.8300940736       -3.5973957068
 C        -5.7262042807        6.5632765256       -3.0889073913
 O        -6.1649576380        5.4890026221       -3.4584727620
 C        -4.6123880598        6.6287441939       -2.0582436477
 C        -3.8009649807        5.3381486765       -1.9162811861
 C        -4.7467827114        4.1732892486       -1.5766735198
 O        -5.6301021700        4.3214895436       -0.7354986194
 C        -4.4371248004        2.7551786669       -2.1617437587
 C        -5.6546298008        1.8422226253       -1.6453057741
 O        -6.7494175562        2.1232093194       -2.0902312701
 C        -5.4768605540        0.5533412352       -0.8386128410
 C        -4.4817997522        2.7266019309       -3.7090098817
 C        -3.0980407581        2.2981276100       -1.5172074571
 C        -6.7835803279        7.4478117248       -5.1057338246
 C        -5.3384499705        9.0058860169       -3.4708010534
 C       -11.0341696450        4.2474790387       -2.7639763211
 C       -12.2686403421        6.3152850509       -1.8046165470
 C        -9.1265924834        2.6750688577        4.3595629464
 C        -7.4443675761        2.9537828713        2.5669056059
 C       -14.5422705743       -2.1606596739        2.2513469175
 C       -12.6446099769       -2.9239709850        0.8449974825
 C       -13.4117387484        3.5976432307        3.8391313587
 C       -15.9561589819        3.5107887352        3.9865272447
 H       -15.7091165059        7.0714498410        2.1649630158
 H       -16.2634904148        6.0153080674        3.5860427164
 H       -16.6411185396        5.5762109938        1.9359621310
 H       -14.6611663883        1.1119938279        3.1120414298
 H       -13.2371764656        1.5229197800        2.0893196313
 H       -15.1950387758        0.9808329949        0.2083244342
 H       -15.7257869721       -0.1447080596        1.4171305944
 H       -11.2199534220        0.3321095445        1.1779827952
 H       -10.5534220134       -1.2716678371        1.1429878941
 H        -9.4290216887       -0.7835322536        3.5162822273
 H       -10.5174128268        0.6173247012        3.7058226444
 H        -9.0036244557        5.2479352641        1.7443410321
 H       -10.2189994310        5.2653583931        3.0318574334
 H       -11.4609875971        6.3157934600        1.0769396672
 H       -11.7806620486        4.6078415071        0.7906883305
 H        -9.9548309948        8.2312171689       -1.4952629001
 H       -11.1052098871        8.5075710973       -2.8299704359
 H        -8.8498383529        9.8067746430       -3.1354154715
 H        -9.1178689667        8.6246523780       -4.2845097523
 H        -5.0952777780        6.9900791391       -1.1704500700
 H        -3.8967767365        7.3894078037       -2.5207256511
 H        -3.1714149023        5.4560377226       -0.9837017560
 H        -3.3108928994        5.3063313415       -2.8718531227
 H        -4.9375774218        0.7821989275        0.1065604566
 H        -4.9656547037       -0.2177440828       -1.4916896044
 H        -6.4754781873        0.1311752289       -0.6337573649
 H        -5.5221667961        2.7286811155       -4.0602886718
 H        -3.8575013554        1.8020418256       -3.9033414759
 H        -3.9868618052        3.6166093718       -4.1931867009
 H        -3.1018097088        2.4083607821       -0.4181834552
 H        -2.2753618250        2.8025902237       -1.8907004299
 H        -3.0124154365        1.1794673740       -1.8156480367
 H        -7.0784861875        8.3868286759       -5.6287157436
 H        -7.6520662700        6.8676194090       -4.8702036675
 H        -5.9112003297        6.9521572557       -5.5116238270
 H        -4.4118105079        8.8356001077       -4.0656921846
 H        -5.0494450904        9.1462203696       -2.4432279185
 H        -5.8249022314        9.8633953443       -3.8575478574
 H       -11.0449716424        4.3125744807       -3.8382537888
 H       -11.8642180603        3.6385031425       -2.4583641350
 H       -10.1637246126        3.6313840610       -2.5042008735
 H       -12.6127863975        6.7255441467       -2.7731704957
 H       -12.1332511818        7.1759007693       -1.0631182576
 H       -13.0149165961        5.6910005758       -1.3904919817
 H        -8.4772932337        2.2212018617        5.0277900730
 H       -10.0784181536        2.3607516292        4.6896260808
 H        -9.0716755207        3.7466551139        4.6314983132
 H        -6.7570277294        2.2985151600        3.1541965183
 H        -7.2903832869        3.9203379797        2.9330790095
 H        -7.1080588539        2.9768180245        1.5529280618
 H       -14.2164068113       -3.0280855365        2.8359074401
 H       -15.4368402346       -2.3357799681        1.6923685299
 H       -14.8529048852       -1.4161115326        2.9833174493
 H       -13.4036396809       -3.6492486113        0.5751329498
 H       -11.9991552263       -3.3501818192        1.6247913071
 H       -11.9718435326       -2.6798278472        0.0312465680
 H       -13.4310849635        2.6351822895        4.4416817368
 H       -13.2830383452        4.3598291979        4.5414467506
 H       -12.5204335135        3.5298620107        3.2304503218
 H       -15.7050897793        2.3948596207        4.1356787328
 H       -16.9021750370        3.6122539595        3.5136222297
 H       -15.7819641449        4.0809410905        4.9213297051
 Na       -7.6737807204        4.3540489693       -1.9973974171
