117

 C       -16.1158009430        6.1808787004        2.4040284739
 C       -14.7756303495        5.3705042579        2.2454113680
 O       -13.7718774764        5.8408997395        1.6870654510
 C       -14.7403685477        3.9469448654        2.8948054983
 C       -14.8175842505        2.8286492434        1.7459040446
 O       -15.3255777716        3.1426571279        0.6837870715
 C       -14.2874983771        1.4523124442        2.0589387275
 C       -14.9168368392        0.3524278763        1.1435124263
 C       -13.9400300672       -0.7270953750        0.6854224148
 O       -13.4611482788       -0.7622008116       -0.4620914516
 C       -13.2880821894       -1.8208378587        1.6454703958
 C       -12.3303664371       -1.0473614522        2.5566221811
 O       -12.4827163793       -0.9325500434        3.7621213171
 C       -10.9662332302       -0.4393714970        1.8841586923
 C       -10.0331929012        0.1208553737        2.9202649603
 C        -8.9138161153        1.0616979509        2.3879644925
 O        -8.0583601847        0.6837560465        1.6194561976
 C        -9.0031603910        2.5421505397        2.7867170929
 C       -10.1505761539        3.2704518715        2.0421409067
 O       -11.0367254575        2.6967082003        1.4829988425
 C       -10.1042004864        4.8417317746        2.0545027048
 C       -10.8283961691        5.4405493098        0.8241351968
 C       -10.0318173303        5.2999114098       -0.4446341220
 O        -8.8527556907        5.0132567573       -0.4057995231
 C       -10.9457681290        5.6060549160       -1.9084384802
 C        -9.8944938607        6.5080856057       -2.6468673383
 O        -8.9015579773        5.9627086018       -3.0969119721
 C       -10.0217925360        8.0619502224       -2.6243795214
 C        -8.7722652268        8.8696101624       -3.1234376610
 C        -7.3986001042        8.3641384184       -2.7099189594
 O        -7.0840209575        8.3692217141       -1.5431758478
 C        -6.3561609660        7.8299318071       -3.7851893172
 C        -5.6242823990        6.4605751161       -3.2768676911
 O        -6.0734136141        5.3787908827       -3.6095869434
 C        -4.4812861032        6.5613505231       -2.2504945154
 C        -3.7202320761        5.2117194867       -1.8753668147
 C        -4.7616538282        4.0546342888       -1.4740729238
 O        -5.5929788265        4.2490672054       -0.6501908521
 C        -4.5989165721        2.6013635610       -2.0051902740
 C        -5.7100920093        1.6538801189       -1.4039355497
 O        -6.8562401421        1.8378898950       -1.7829521203
 C        -5.5334410040        0.4225705400       -0.4724105143
 C        -4.7008699470        2.6042790933       -3.5933087457
 C        -3.1842071042        2.1173949003       -1.5619401126
 C        -7.0517680382        7.4660857050       -5.1633443048
 C        -5.3700902832        8.9614425676       -3.9000510764
 C       -11.1307572204        4.2036898863       -2.5585133471
 C       -12.3288390460        6.2298792274       -1.5988761320
 C        -9.2119399755        2.6463004631        4.3356820310
 C        -7.6540085774        3.1902677748        2.5283037107
 C       -14.3816198866       -2.4860313480        2.5131577956
 C       -12.6865472864       -2.9081352169        0.7290350470
 C       -13.3426867358        3.8856229361        3.6505312338
 C       -15.8629648338        3.6698997501        3.9977649246
 H       -16.0326043319        7.1214834095        1.7773723676
 H       -16.1660876531        6.4700297891        3.4873238196
 H       -16.9273674632        5.5826720148        2.0152823500
 H       -14.4839836642        1.2412580842        3.1036450568
 H       -13.1865388589        1.4714219982        1.9494279334
 H       -15.2256368941        0.9378524208        0.2192658062
 H       -15.7682643686       -0.0620768315        1.6049886627
 H       -11.1695596168        0.2213745961        1.0279845275
 H       -10.5405678810       -1.2328798825        1.3588490542
 H        -9.5610976604       -0.6186644979        3.5604327043
 H       -10.6271692112        0.8292490674        3.5194844264
 H        -9.0627224066        5.1006747038        2.0628656511
 H       -10.5079104348        5.3121154821        2.8781844628
 H       -11.2051482588        6.4785904567        0.9806799836
 H       -11.7262259163        4.7841812439        0.6721178032
 H       -10.2767879808        8.4352618934       -1.6170177959
 H       -10.9446940544        8.2425392991       -3.1754748572
 H        -8.8760066475        9.9018919199       -2.7358187971
 H        -8.8743005663        9.0079798942       -4.2002599105
 H        -4.9192853052        6.9005800261       -1.3294170743
 H        -3.8509197908        7.3070175098       -2.6340921253
 H        -3.0887303221        5.5197016868       -1.0617081866
 H        -3.2127374379        4.8963863286       -2.8134150987
 H        -5.8998886592        0.8037744093        0.5097870084
 H        -4.5331137240        0.0726509830       -0.4631830407
 H        -6.2478643203       -0.3063451328       -0.7335753116
 H        -5.6762333851        2.2288837546       -3.7542547913
 H        -3.9883586837        1.9776285611       -4.0654078765
 H        -4.6399611444        3.6045444912       -4.0051881448
 H        -3.1920847825        2.0889804719       -0.5142718948
 H        -2.4485498434        2.8318380158       -1.7698622046
 H        -2.9470882378        1.0921103826       -1.9481639263
 H        -7.5067103272        8.3715863315       -5.6016170803
 H        -7.6750398738        6.6770798427       -4.8256696449
 H        -6.2251095856        7.2341592445       -5.8275504485
 H        -4.5446122202        8.6612329627       -4.6132776469
 H        -4.8420152829        9.2301473626       -3.0177912243
 H        -5.9645967394        9.7385588120       -4.3469235610
 H       -11.9578853071        4.2148668044       -3.2478065029
 H       -11.4579080264        3.3655554427       -1.9043474181
 H       -10.2447101998        3.9160188527       -3.1501864079
 H       -12.7629124775        6.4261641242       -2.5712792153
 H       -12.3069672850        7.1821251324       -1.0257791989
 H       -12.9292236644        5.5897853345       -1.0177967435
 H        -8.6310718299        1.9422355378        4.9563832150
 H       -10.2479899378        2.5453586607        4.6367959715
 H        -8.9547134983        3.6829660836        4.7616126801
 H        -6.7480351552        2.7447730021        3.0136661406
 H        -7.6605995042        4.1801023591        2.9431877205
 H        -7.4101437514        3.3233437005        1.4602952799
 H       -14.0238865504       -3.2866006308        3.1271916547
 H       -15.1724072607       -2.8760537691        1.8023077480
 H       -14.9738542213       -1.8437280678        3.1342124113
 H       -13.3462733260       -3.7435507876        0.5629429302
 H       -11.8108894782       -3.4464026007        1.1972131026
 H       -12.3132727579       -2.3938763646       -0.1732673234
 H       -13.2227352457        2.9237943891        4.1441947139
 H       -13.1011708425        4.7099580549        4.3061918804
 H       -12.5364386938        3.8265422096        2.9219211557
 H       -15.5471092105        2.7934949913        4.5809509048
 H       -16.7036547329        3.4680122528        3.4861452876
 H       -15.9273738085        4.5328749398        4.6682928006
 Na       -7.5138353523        4.0368461420       -2.2852145742
