117

 C       -16.2738947251        6.1592464763        2.0981900582
 C       -14.8758442183        5.4460006658        2.1184758956
 O       -13.9374293661        5.9997607219        1.5389013847
 C       -14.6999782755        4.0830124351        2.8505278031
 C       -14.8214056546        2.8708129118        1.7571073287
 O       -15.5134886591        3.1260543415        0.7853429061
 C       -14.1107900623        1.4914277295        1.8790709762
 C       -14.9108574039        0.3340829771        1.3443611906
 C       -14.0172104030       -0.7531282018        0.8042441581
 O       -13.7388927157       -0.7195878478       -0.4039843168
 C       -13.3068705578       -1.7954953853        1.6868623884
 C       -12.2106335690       -1.0462295968        2.5199177257
 O       -12.2680366409       -1.0523188993        3.7428232090
 C       -10.9260967197       -0.4449449514        1.9237254728
 C       -10.1264049711        0.2891499683        3.0368827728
 C        -8.9347082449        1.0945751298        2.4653871920
 O        -8.0722840052        0.5882174185        1.7452490575
 C        -8.9217000743        2.6081383750        2.8365667106
 C       -10.1355091264        3.3740354812        2.0152668892
 O       -11.1381565773        2.8785678179        1.5261479477
 C       -10.1053820139        4.8840259357        2.1618811248
 C       -10.6352950189        5.6087577425        0.9479770525
 C        -9.8998167449        5.2482532064       -0.2874711520
 O        -8.8694334415        4.6401755955       -0.2856302182
 C       -10.7032343499        5.5464613839       -1.6786392223
 C        -9.6664943599        6.4225270633       -2.5637384775
 O        -8.8029236695        5.8738556433       -3.2357441631
 C        -9.7034805139        8.0230579655       -2.4201050436
 C        -8.6423504868        8.7498891749       -3.3156657187
 C        -7.2597811114        8.2456422688       -2.8564896275
 O        -6.9085158744        8.3689871335       -1.6764424528
 C        -6.2554486757        7.6759520422       -3.9618928557
 C        -5.6978990944        6.3167595319       -3.3357387507
 O        -6.0411114220        5.2238415932       -3.7502118057
 C        -4.7299205512        6.4052729020       -2.1718872862
 C        -3.9479976273        5.0460024708       -2.0679925768
 C        -4.9564243604        4.0456885294       -1.5445567871
 O        -5.8374840125        4.3683688293       -0.8027884489
 C        -4.7212331136        2.5227629955       -1.9272459450
 C        -5.8684050906        1.7233758496       -1.2399324661
 O        -7.0345357351        2.0263347193       -1.4111863983
 C        -5.5570089135        0.5651772952       -0.3003631747
 C        -4.8370262575        2.3000894173       -3.4893284342
 C        -3.2879954346        2.1963988902       -1.4684701413
 C        -6.9653837044        7.3888607584       -5.3861472573
 C        -5.2386729881        8.7982759406       -4.2383156083
 C       -11.0354779845        4.2409173768       -2.4093544107
 C       -12.0406415432        6.4079464321       -1.6809978202
 C        -9.2541872609        2.8831288955        4.3506922447
 C        -7.5618625739        3.1579046553        2.3762757937
 C       -14.2445536371       -2.4609781269        2.6588217644
 C       -12.6213375784       -2.9097489225        0.8449612734
 C       -13.3997458372        3.9650153728        3.5573736978
 C       -15.8501735209        3.7645158173        3.8364512981
 H       -16.3260784730        6.6876968701        1.1693431875
 H       -16.3984746986        6.8159872553        2.8906153309
 H       -16.9820348373        5.3696660999        1.9500581042
 H       -13.7142761201        1.3052763640        2.8944079117
 H       -13.1760121705        1.5393098129        1.2984624137
 H       -15.5294163894        0.7220111334        0.4706215570
 H       -15.5307363076       -0.0325059111        2.1358447832
 H       -11.2145653412        0.1558006441        1.0450302176
 H       -10.3920478776       -1.2040815909        1.4203901991
 H        -9.5841546180       -0.4472838926        3.6731542950
 H       -10.7370425597        0.8657638209        3.7261429419
 H        -9.0499475425        5.2764374025        2.3901919876
 H       -10.6731476917        5.1252906319        3.0064746524
 H       -10.5355411012        6.6682075640        1.0714149604
 H       -11.7293062652        5.4298238851        0.7996614000
 H        -9.3868342743        8.1853233495       -1.3406802653
 H       -10.6475762630        8.4958826322       -2.4255096023
 H        -8.8188586032        9.7820509036       -3.1267449559
 H        -8.8765404709        8.4908085403       -4.4008511366
 H        -5.4925002216        6.6215138304       -1.2893220751
 H        -4.1314376660        7.3075197981       -2.2784539029
 H        -3.1061415488        5.1510482821       -1.4568236478
 H        -3.5949147366        4.8455717461       -3.1338175937
 H        -6.3234765999        0.5416108423        0.5492733909
 H        -4.5332290346        0.6436579408       -0.0482149771
 H        -5.8484080627       -0.3066265092       -0.8612649773
 H        -5.5783876867        3.0231019549       -3.9380220169
 H        -5.1814307819        1.3232823162       -3.8717632793
 H        -3.7737015596        2.4765206772       -3.8416823447
 H        -3.1069360985        2.3199229547       -0.3864443495
 H        -2.5296695153        2.8282926084       -2.0150946245
 H        -3.0646311526        1.1121333714       -1.6954433566
 H        -7.1996220861        8.3434479635       -5.8028638990
 H        -7.7134935756        6.7162303825       -5.0840068904
 H        -6.2061556713        6.9125173686       -5.9820452609
 H        -4.4711601320        8.3657917554       -4.9234068767
 H        -4.6938283931        9.0449370647       -3.3481473040
 H        -5.7521251326        9.6713782150       -4.6611600582
 H       -11.2808646487        4.2700164713       -3.4389864830
 H       -11.9570118963        3.8418183076       -1.9513525255
 H       -10.2520812040        3.5159192890       -2.2901683018
 H       -12.3581392484        6.6799726608       -2.6831207136
 H       -11.9433251779        7.2905007743       -1.0666936015
 H       -12.8092592790        5.8181619737       -1.1685059989
 H        -8.5114736043        2.4144058977        4.9868559159
 H       -10.1753914552        2.5186639452        4.6808850256
 H        -9.2632281750        3.9280942297        4.6146118580
 H        -6.7603139326        2.4663582804        2.5392525958
 H        -7.2169429905        4.0100803511        2.9490573178
 H        -7.5035671645        3.4033563885        1.3194609112
 H       -13.7523243142       -3.0908067285        3.3520225696
 H       -15.0006613886       -3.1467811424        2.1375969528
 H       -14.8185582891       -1.7604133199        3.2419895551
 H       -13.0970855105       -2.9686461184       -0.1218430777
 H       -12.7737353177       -3.9171758373        1.2004402342
 H       -11.5864080137       -2.7426963231        0.6102027846
 H       -12.9855612014        2.9940929054        3.6573627734
 H       -13.4395312669        4.4692500197        4.5681919362
 H       -12.6030572809        4.5711913612        3.0876262179
 H       -15.6741240318        2.7733079541        4.2874758109
 H       -16.7721042906        3.8539117773        3.3450356471
 H       -15.7391535448        4.5575730238        4.6653011613
 Na       -7.6957452587        4.1411778610       -2.3306621948
