117

 C       -15.8017904865        5.4354287643        0.2949498680
 C       -14.6937725913        5.2087192837        1.3422836931
 O       -13.6062679161        5.7397919879        1.1819549104
 C       -14.9815174169        4.2048190127        2.5671549635
 C       -15.4103737069        2.7509362401        2.0831043487
 O       -16.5264871675        2.5619207397        1.7686049339
 C       -14.2830158625        1.6963594948        1.8691278047
 C       -14.8043812339        0.4001146462        1.2877833865
 C       -13.5238210628       -0.4302285186        0.9169304928
 O       -12.8068023148       -0.0941146220        0.0121922487
 C       -13.1590213190       -1.6744164995        1.9730659035
 C       -12.3874494056       -0.9367504428        3.0734804315
 O       -12.9725167204       -0.5410058563        4.0316269055
 C       -10.8542082588       -0.5064715155        2.7204855905
 C       -10.3976109104        0.7074989106        3.4640702036
 C        -9.0386274613        1.2624760883        2.8348323268
 O        -8.3110577737        0.6153843764        2.1527522188
 C        -8.6599935523        2.7168931056        2.9656488975
 C        -9.8314198196        3.5936951884        2.2712629083
 O       -10.8177364888        3.1385850428        1.8368820428
 C        -9.6470589490        5.1142166511        2.3886189553
 C       -10.3480385655        5.9819543567        1.3353043462
 C        -9.9055717518        5.7289675348       -0.1685024154
 O        -9.1161037918        4.8340145715       -0.4234792575
 C       -10.7065071204        6.4540730307       -1.4398371657
 C        -9.7540646966        6.8036064535       -2.5973541145
 O        -9.1631123057        5.8600769866       -3.2279354492
 C        -9.6521100389        8.2074525270       -3.0253357108
 C        -8.4897652972        8.3916338300       -4.0105482248
 C        -7.2631322428        7.7685032247       -3.4602961841
 O        -6.9967051202        7.8927002259       -2.3068565123
 C        -6.1728536245        7.0630052832       -4.4402119832
 C        -5.6602642401        5.7880279293       -3.6392972582
 O        -6.1552301830        4.7021872896       -3.8528148778
 C        -4.5588135878        6.0582698066       -2.5999898111
 C        -3.9599798964        4.6895291190       -2.1896032432
 C        -4.9849402958        3.7811855014       -1.5346413103
 O        -5.8675740684        4.2866289421       -0.8536951713
 C        -4.6907779207        2.1649302724       -1.6980614887
 C        -6.0623155038        1.5012319568       -1.1533869003
 O        -7.1644906226        2.0026286021       -1.4456723962
 C        -5.9262900592        0.3043853904       -0.1766805595
 C        -4.5457410302        1.7670622375       -3.1080193252
 C        -3.4083343256        1.7339502791       -1.0110731145
 C        -6.6667832350        6.6002358927       -5.8832862463
 C        -5.0720709414        8.0288736214       -4.8090830234
 C       -11.6390470315        5.2667410775       -1.9721600202
 C       -11.6402003224        7.5813036639       -0.9302072118
 C        -8.5610277244        3.1002821809        4.5212600948
 C        -7.3224349564        3.0263763618        2.2978037937
 C       -14.3653630212       -2.4989998496        2.4853448769
 C       -12.3569291619       -2.6167316126        1.0320016196
 C       -13.7556978829        4.0976348882        3.4187936142
 C       -16.1193575311        4.8445603401        3.3181745208
 H       -15.6215621265        6.4070471205       -0.1526579783
 H       -16.7472316985        5.4692532017        0.8103677953
 H       -15.9449445737        4.6472361481       -0.3250964648
 H       -13.7147631567        1.4269856729        2.7719885928
 H       -13.5777841414        2.0814313962        1.1069756246
 H       -15.3496494467        0.5481490860        0.3045974938
 H       -15.5291360860       -0.0850239495        1.9118173147
 H       -10.8820505796       -0.2187972000        1.6469276539
 H       -10.1669560994       -1.3123220090        2.8696110590
 H       -10.3073775358        0.5481251890        4.5411657641
 H       -11.0615406221        1.5363077609        3.2486948334
 H        -8.5920380341        5.3745357252        2.5027433798
 H       -10.1000411563        5.2866048199        3.3493992584
 H       -10.5313702232        7.0348098660        1.5817562238
 H       -11.3367021018        5.4527095432        1.2826695853
 H        -9.4847499156        8.8669064831       -2.1408287208
 H       -10.5860156720        8.4887851968       -3.4975596427
 H        -8.3063328909        9.4375882990       -4.1369276875
 H        -8.7664372948        7.9820362866       -5.0372129174
 H        -5.0918617390        6.3887164783       -1.7005561334
 H        -3.9215830440        6.8192527145       -2.8450867751
 H        -3.0596461838        4.8889055198       -1.6222051145
 H        -3.5353863055        4.2197076358       -3.1254069393
 H        -6.6676430712        0.4533434871        0.6650281258
 H        -4.9566676777        0.3041381841        0.2749174293
 H        -6.0600181219       -0.5706126079       -0.7812604877
 H        -5.3533734515        2.0473924014       -3.8165428273
 H        -4.3942584679        0.6821460427       -3.1588016542
 H        -3.6153711866        2.1905575569       -3.6460754475
 H        -3.2808014864        1.8239445501        0.0487626547
 H        -2.6311841216        2.3523983459       -1.3966689881
 H        -3.2387925920        0.6242903573       -1.3323268613
 H        -6.9468058300        7.4684210583       -6.4258410911
 H        -7.4282201387        5.9359560183       -5.6910837953
 H        -5.7694320317        6.2859898379       -6.3449898440
 H        -4.3055573117        7.6863660570       -5.5641980071
 H        -4.4873454241        8.3687720881       -3.9931975971
 H        -5.5864891131        8.8888668670       -5.2546566715
 H       -12.2535903758        5.6777860060       -2.7320113005
 H       -12.3296853255        4.8607501930       -1.2001914376
 H       -11.0451731080        4.4630705276       -2.3868632959
 H       -12.1540957558        7.8924987257       -1.8391819533
 H       -11.1232106186        8.4544323333       -0.5055957089
 H       -12.3386000104        7.2456112797       -0.1878343355
 H        -7.7632145672        2.4839012061        4.9205939004
 H        -9.4564943568        2.9500703351        5.0327000106
 H        -8.2651536135        4.1588346230        4.5388104630
 H        -6.5368715148        2.4378718983        2.7567063066
 H        -7.0504634667        4.0667619246        2.4478111453
 H        -7.3709776453        2.8405009299        1.2254341164
 H       -14.0338064978       -3.4740124820        2.7217679739
 H       -15.2906536040       -2.5072647457        1.8162738790
 H       -14.7342696435       -2.0516176599        3.3915504221
 H       -12.9865221340       -3.1720985439        0.3940100612
 H       -11.8571452393       -3.4179501093        1.5660835016
 H       -11.5297415388       -2.1290588288        0.5540119797
 H       -13.9576103353        3.4459050031        4.3021871272
 H       -13.2600676621        5.0458933475        3.7747303013
 H       -12.9456593782        3.5332766025        2.9070267910
 H       -16.3190871737        4.2925423583        4.2340144385
 H       -17.0325952101        4.8559864224        2.8505054390
 H       -15.7669319035        5.8386860800        3.6674000260
 Na       -7.9950105888        3.9321147432       -2.2563954868
