117

 C       -15.9002155959        5.5716026299        0.4561108876
 C       -14.7474599227        5.2263010126        1.4593723573
 O       -13.6855122494        5.8321245026        1.3673468410
 C       -14.9174752039        4.1717413545        2.5640621391
 C       -15.3549746519        2.7757373743        1.9542098743
 O       -16.5152686907        2.5204107675        1.6402026090
 C       -14.2837984466        1.7175864815        1.7876221463
 C       -14.8428500663        0.3276055808        1.3398912579
 C       -13.6560262514       -0.5698112005        0.9842115672
 O       -12.8784461353       -0.2560553468        0.0804536325
 C       -13.1789988646       -1.6788646990        1.8773584939
 C       -12.3479767884       -0.9107129024        3.0001697525
 O       -12.8762705320       -0.6206204391        4.0480571089
 C       -10.9567318440       -0.4765810730        2.6210456287
 C       -10.2622819567        0.5535253358        3.4983079500
 C        -9.0330546268        1.2278476829        2.7432456393
 O        -8.3208796049        0.4558253384        2.1251759550
 C        -8.7291448077        2.7680581756        2.8962237911
 C        -9.8995961582        3.6947365611        2.3401155066
 O       -10.8806131087        3.2067086927        1.7637160272
 C        -9.6266513966        5.2459294052        2.3162095680
 C       -10.3432779490        5.9718737947        1.2162021534
 C        -9.9685928496        5.5492230753       -0.2237540599
 O        -9.1296449888        4.6836369667       -0.4139124716
 C       -10.7410619144        6.2357042507       -1.3901495158
 C        -9.7834900892        6.7093763248       -2.5199435605
 O        -9.1198546456        5.8844665044       -3.1356039306
 C        -9.7053384855        8.2131056653       -2.9734631231
 C        -8.5221394484        8.4610483105       -4.0129794583
 C        -7.2445765130        7.8991038757       -3.4496323486
 O        -6.9223823749        8.0054281162       -2.2592774437
 C        -6.1415860822        7.1364331211       -4.3944242835
 C        -5.6174990212        5.8957885381       -3.6293320658
 O        -6.0522995412        4.7645724733       -3.8770780332
 C        -4.5688946162        6.0329605383       -2.5735275701
 C        -3.9280050765        4.6621841665       -2.2720261988
 C        -4.9037892733        3.8027892362       -1.5508659211
 O        -5.8703680419        4.2994400003       -0.9865642241
 C        -4.7352627126        2.2116610611       -1.6431406787
 C        -6.0378274381        1.6106574138       -1.0493269528
 O        -7.0953088791        1.9916815873       -1.5189151354
 C        -5.9763910954        0.4411472172       -0.1114046422
 C        -4.7394273077        1.8193949606       -3.1066647268
 C        -3.4552264831        1.7751422225       -0.9161102567
 C        -6.6808058742        6.5709742506       -5.8248563829
 C        -5.0279563859        8.1908908757       -4.7254076829
 C       -11.5684965189        5.1264889890       -2.1249492282
 C       -11.6105469008        7.4053848594       -0.8708933019
 C        -8.5998920218        3.0381737598        4.4562231100
 C        -7.3653916242        3.0376425524        2.1995475052
 C       -14.3388095656       -2.5052695759        2.3490376836
 C       -12.2312774118       -2.6177994484        1.0263792787
 C       -13.6126520252        4.0982258105        3.3534079729
 C       -16.0968735149        4.8184735623        3.4548145689
 H       -15.7595680271        6.5861489014        0.2542144940
 H       -16.7915000265        5.5043565917        0.9594912368
 H       -16.0796790046        4.9334454493       -0.4160360524
 H       -13.8494918715        1.5414266478        2.7846196911
 H       -13.4809577370        2.0319265337        1.1028451457
 H       -15.5036622485        0.3739770773        0.4930597816
 H       -15.5191934684       -0.0919447980        2.1717924441
 H       -11.0462053343       -0.1009161282        1.6798715200
 H       -10.3695491536       -1.3854576037        2.6490279215
 H        -9.8061225004        0.0889918712        4.3826526495
 H       -10.9079497843        1.3871208120        3.8205078733
 H        -8.5784641893        5.4894372712        2.3192103216
 H       -10.0014214036        5.6000272376        3.1831096369
 H        -9.8601277507        7.0001432692        1.2234342890
 H       -11.3776311759        6.0349209075        1.4023426342
 H        -9.5395529967        8.8681687981       -2.1637660933
 H       -10.6519903402        8.5712545609       -3.4884951385
 H        -8.4652359667        9.5671148683       -4.1134430567
 H        -8.7560841149        8.0199453352       -5.0166744938
 H        -5.0076102874        6.4901812510       -1.6747708926
 H        -3.8055864725        6.8129052729       -2.9422682823
 H        -2.9490233000        4.8355230956       -1.7238277962
 H        -3.5358936025        4.2681149851       -3.1623059669
 H        -6.7254899015        0.5762584623        0.7046194540
 H        -5.0199705678        0.3974956058        0.3480952540
 H        -6.1754876481       -0.4209827184       -0.8073283645
 H        -5.4072449652        2.3711325555       -3.8343178613
 H        -4.9915469592        0.7455276479       -3.1578049012
 H        -3.7652207414        1.8883603161       -3.5946851735
 H        -3.2735626077        1.9757183019        0.1314648766
 H        -2.5628824271        2.2838716753       -1.4420335453
 H        -3.4174661644        0.7067182450       -1.0747369970
 H        -7.0119400781        7.3936276838       -6.4114997338
 H        -7.4143576911        5.8246867563       -5.5882812487
 H        -5.7308458677        6.2949285092       -6.2246836657
 H        -4.1781662096        7.8327239306       -5.2394302925
 H        -4.6865806815        8.6984280319       -3.8263422909
 H        -5.4793226959        8.9454945259       -5.3698818456
 H       -12.0199829909        5.6131989040       -2.9997670557
 H       -12.3552814687        4.7204943210       -1.5041695808
 H       -10.9473931802        4.3106538135       -2.4461413838
 H       -12.0617779210        7.8699525387       -1.7672380648
 H       -10.9900640434        8.1547493217       -0.4038732649
 H       -12.4140248731        7.1165067526       -0.0851230430
 H        -7.8184991067        2.3252518900        4.7681730265
 H        -9.5052893766        2.8687173880        5.0297208718
 H        -8.2179979833        3.9800890736        4.5966842761
 H        -6.6528671410        2.4529066306        2.6609953742
 H        -7.0386888882        4.0906664289        2.2089148261
 H        -7.4342880027        2.7536490067        1.1693896817
 H       -14.0278132107       -3.4268427224        2.8373188654
 H       -15.0567907738       -2.7056460187        1.5512474078
 H       -14.9208208653       -1.9590277879        3.0783002434
 H       -12.6919218933       -3.0908133177        0.1563479691
 H       -11.9577138980       -3.4470453358        1.6217154118
 H       -11.2706460241       -2.2463183614        0.7895410607
 H       -13.8515883739        3.7915327657        4.3261353577
 H       -13.1040652492        5.1118716643        3.4706849497
 H       -12.8091822109        3.4120455434        3.0475915572
 H       -16.3954343925        4.2675044697        4.3573408890
 H       -17.0172358338        4.8500014990        2.8857465420
 H       -15.7624924489        5.8560604806        3.7974962509
 Na       -8.0130839015        4.0110676765       -2.1986571639
