117

 C       -16.1224180009        5.6760927247        0.8403507473
 C       -14.8971728203        5.3980208027        1.7000505996
 O       -13.8378691332        5.9593706398        1.4373633953
 C       -14.8530355958        4.2120561459        2.6929673921
 C       -15.2046017069        2.8943599476        1.8562290673
 O       -16.2929521649        2.8717384037        1.3276796999
 C       -14.1797330113        1.7707081985        1.7256808784
 C       -14.7716476551        0.3986660623        1.3782507725
 C       -13.7341037982       -0.6286572527        0.8804194415
 O       -13.2028717445       -0.4265142233       -0.1983159870
 C       -13.1219687990       -1.8013934854        1.7659765109
 C       -12.3099429606       -0.9320130159        2.8381456456
 O       -12.6488320448       -0.9520008552        3.9894597630
 C       -10.9742013267       -0.3567085176        2.3771845784
 C       -10.3147500718        0.6616420898        3.3271011398
 C        -9.0764223898        1.2041497101        2.6463208441
 O        -8.4319818640        0.4273708538        1.9680095110
 C        -8.8132367789        2.6950684132        2.8324258562
 C        -9.8751436153        3.5851769211        2.2432705911
 O       -10.9343480092        3.1744836859        1.8239661793
 C        -9.5554084029        5.1034744113        2.1870404264
 C       -10.4257663699        5.8298103176        1.1624746512
 C       -10.1350626381        5.2937831668       -0.2393395425
 O        -9.2662469486        4.4640758032       -0.4358181008
 C       -10.7952481614        5.9608450666       -1.4906816976
 C        -9.6589654583        6.5969606948       -2.3691523382
 O        -8.8191855927        5.8014761730       -2.8359783954
 C        -9.5920389018        8.0297640166       -2.6847985842
 C        -8.5686516434        8.3624029184       -3.7823974164
 C        -7.1961382392        8.0928228934       -3.2824349569
 O        -6.8666739380        8.3364441963       -2.1333678338
 C        -6.1226344338        7.3313300127       -4.2884781854
 C        -5.5657103125        6.0154414480       -3.5910978103
 O        -6.0908033225        4.9322522162       -3.7846063202
 C        -4.2643415743        6.1114689215       -2.7819855307
 C        -3.8640849219        4.7826585896       -2.1744313498
 C        -5.0258093195        3.9896186294       -1.5911108104
 O        -5.8775741420        4.5618607349       -0.9227308305
 C        -4.9556795692        2.4484396082       -1.6971212543
 C        -6.1846018116        1.7471431340       -1.0819777276
 O        -7.3523227820        1.9183276807       -1.4330045817
 C        -5.9588377102        0.6113471624       -0.0535240494
 C        -4.7133009205        1.8563118498       -3.1906904977
 C        -3.6426420269        1.9208315542       -1.0074328620
 C        -6.7416504135        6.9917190066       -5.7468917426
 C        -5.0464586254        8.4023694789       -4.6407676739
 C       -11.4247212987        4.7387035566       -2.1762247045
 C       -11.8777346103        7.0615870452       -1.2358734045
 C        -8.6650673515        3.0638394098        4.3216219855
 C        -7.4441095789        2.9324255931        2.1309341204
 C       -14.1902549184       -2.5678324787        2.6205803061
 C       -12.2933297711       -2.7668444223        0.9422538094
 C       -13.4751245572        4.0946834591        3.4096274687
 C       -16.0188798048        4.3115278133        3.7580388407
 H       -16.1573351203        6.8101848888        0.7633712735
 H       -17.0508084552        5.2900754404        1.2504799421
 H       -15.9660634151        5.2261895510       -0.1663037948
 H       -13.6333607079        1.7125810539        2.6773813936
 H       -13.4171939551        2.0800395855        1.0029664674
 H       -15.5408205288        0.6094098498        0.6323904965
 H       -15.3073342829        0.0492020487        2.2653894897
 H       -11.0229860483        0.0407691077        1.3257796645
 H       -10.3644245033       -1.2899958847        2.5017880348
 H        -9.8879405234        0.0942070818        4.1792157732
 H       -10.9059611707        1.4063015999        3.8375813787
 H        -8.4259003335        5.2686552877        1.9434376026
 H        -9.7654657414        5.6033972719        3.1187713743
 H       -10.1019115820        6.8903791876        1.1961370180
 H       -11.5069162986        5.7858430065        1.4276661099
 H        -9.3712542249        8.6112275275       -1.7650614853
 H       -10.6024772986        8.3289614541       -2.9816199345
 H        -8.6351154842        9.3899470856       -3.9953669700
 H        -8.8340289680        7.6866650003       -4.6373721942
 H        -4.4878891952        6.8412843262       -2.0352573548
 H        -3.5215930643        6.5893176195       -3.3240391989
 H        -2.9796937562        4.8324365263       -1.5438103079
 H        -3.3354644452        4.2381624272       -2.9911012060
 H        -6.9641383915        0.2759690738        0.3356110905
 H        -5.4149016883        0.9902080993        0.7452865498
 H        -5.5127467579       -0.1541086140       -0.6450404984
 H        -5.5864335355        2.0147437935       -3.8326473024
 H        -4.6339224418        0.8167964626       -3.1102395723
 H        -3.9020079182        2.2597733183       -3.7763649270
 H        -3.6432228191        2.1154927349        0.0213921883
 H        -2.7081169530        2.2825336779       -1.4554902624
 H        -3.6284354061        0.8150565063       -1.0178837509
 H        -7.0775414013        7.9556068574       -6.1118457070
 H        -7.5428849036        6.3182988980       -5.5551737552
 H        -5.8867063463        6.5866353387       -6.2899532371
 H        -4.3376202921        7.9998339625       -5.4198440019
 H        -4.5875707152        8.8813159795       -3.7872019493
 H        -5.5285134456        9.2695275749       -5.1755115360
 H       -11.9943999752        4.9537629193       -3.0732651517
 H       -12.0462011564        4.2299211242       -1.4014739566
 H       -10.6739779245        3.9864096788       -2.4027754659
 H       -12.5007471180        7.2923159561       -2.0679234650
 H       -11.4492488855        7.9565625995       -0.8816348726
 H       -12.5243471778        6.6402435027       -0.4770837951
 H        -7.8506391338        2.4603656699        4.8370699335
 H        -9.6181227051        2.9205444727        4.8415120964
 H        -8.3244628780        4.1001608224        4.3389629120
 H        -6.8805926748        2.0222810026        2.2733310918
 H        -6.8953471981        3.8295221563        2.5371029412
 H        -7.4825339172        3.1459126871        1.0323058145
 H       -13.8293555967       -3.2598536189        3.3483786973
 H       -14.7975668429       -3.2170831160        1.9020448237
 H       -14.9057356777       -1.9550589626        3.1479001092
 H       -12.9678949489       -3.5063302400        0.4769178238
 H       -11.4162841803       -3.2507526597        1.3929329349
 H       -11.8434302068       -2.3228570475        0.0311102974
 H       -13.2122919882        3.2016773582        3.9028349529
 H       -13.4238214980        4.7733270525        4.3194447279
 H       -12.6233727943        4.3968960599        2.7725819635
 H       -16.0213256539        3.5980892765        4.5645875707
 H       -16.9185848723        4.2188574388        3.2721457289
 H       -15.9922049082        5.3458700212        4.1808246461
 Na       -7.6220797023        3.9704182616       -2.2203392779
