117

 C       -15.9462036053        5.6620087889        0.6335364672
 C       -14.7574895590        5.3153503859        1.5044812861
 O       -13.7197333801        5.9542883451        1.4039812851
 C       -14.9071416049        4.1749537567        2.5566562741
 C       -15.3698736514        2.7818870476        1.9220394539
 O       -16.5336109246        2.6165716400        1.5220941379
 C       -14.2711776906        1.7024629324        1.7911095214
 C       -14.7999666498        0.3016832151        1.3651928912
 C       -13.6108350207       -0.5625557895        0.9367014937
 O       -13.0097611201       -0.2303375727       -0.0698297136
 C       -13.1501859200       -1.7925065108        1.8875969985
 C       -12.3234220350       -0.9673908525        2.9776251303
 O       -12.8114395146       -0.6908820444        4.0732127169
 C       -10.9588288959       -0.4375938846        2.4775543968
 C       -10.2252126318        0.4552673499        3.5024831875
 C        -9.0947323246        1.1416957155        2.7260946781
 O        -8.3189361981        0.4424879182        2.0708346735
 C        -8.7765588743        2.7033823264        2.8608394294
 C        -9.8258703047        3.7059835162        2.2296668661
 O       -10.9013901131        3.2875764690        1.7912350142
 C        -9.5591032012        5.2678611082        2.2836320967
 C       -10.3406009864        5.9797248964        1.1441544067
 C        -9.9947037624        5.4495905353       -0.2296618341
 O        -9.1887275257        4.5572008814       -0.3268956236
 C       -10.7827800870        6.1154312834       -1.4781596999
 C        -9.7106790273        6.6377190218       -2.4909580111
 O        -8.9614165791        5.9307604784       -3.0780399278
 C        -9.7012929941        8.1506084846       -2.8810875434
 C        -8.5769706533        8.3928867503       -3.9713800646
 C        -7.1737342753        7.8838948344       -3.4749616531
 O        -6.8510822931        8.1047651268       -2.3148432402
 C        -6.1104674726        7.2192550140       -4.4044884844
 C        -5.5666015935        5.9742506648       -3.6585372428
 O        -6.0751790168        4.8720470109       -3.8919621133
 C        -4.4365126497        6.0901203203       -2.5626385814
 C        -3.8041454737        4.7167135023       -2.2850482602
 C        -4.8602000090        3.8723437504       -1.6005194501
 O        -5.8491407296        4.3118739450       -1.0426004205
 C        -4.7764489918        2.2505322164       -1.6494809340
 C        -6.0888273976        1.6233614086       -1.0255744290
 O        -7.1522010450        1.9137905886       -1.5054558421
 C        -6.0657013190        0.4856387333       -0.0160872013
 C        -4.8752242580        1.8698898711       -3.1634524686
 C        -3.4729865319        1.8680993388       -0.8491319382
 C        -6.8220528341        6.6504118233       -5.6764861469
 C        -5.0307405481        8.3183430640       -4.5797168914
 C       -11.6099620149        5.0338968199       -2.1714952158
 C       -11.6762675490        7.2302761277       -0.9266056003
 C        -8.6426186899        3.0063370026        4.3550578933
 C        -7.4924550238        3.0169237400        2.1348447712
 C       -14.3744145285       -2.5795202229        2.4168256622
 C       -12.1411864968       -2.6818181607        1.0673914647
 C       -13.5857729292        4.1350442727        3.3680682400
 C       -16.0139413129        4.6240054300        3.5781690189
 H       -15.9459719316        6.6883580586        0.3505537481
 H       -16.9252624997        5.3360281303        1.0340815574
 H       -15.8084446229        4.9580105279       -0.2380319864
 H       -13.6860769085        1.6284040383        2.7100606978
 H       -13.6004511520        2.0424688651        0.9958938345
 H       -15.5111574965        0.4083349727        0.5612767530
 H       -15.3896637416       -0.1404226305        2.1903340740
 H       -11.1215067795        0.1148245932        1.5664807081
 H       -10.3298137451       -1.3237239518        2.3863498944
 H        -9.6875419092       -0.1366591240        4.2650254551
 H       -10.7929882342        1.2404649508        4.0385328707
 H        -8.5391469757        5.5398114961        2.2233487800
 H        -9.9479536340        5.6174008595        3.2907795503
 H        -9.9340457999        6.9864769995        1.1050831785
 H       -11.4033460677        5.9807025871        1.3240960031
 H        -9.5781207361        8.8287149841       -2.0398357139
 H       -10.6437079158        8.4777910595       -3.3702404626
 H        -8.5948647128        9.5253169838       -4.1185008818
 H        -8.9158027812        7.9170270083       -4.8571378336
 H        -4.8602309472        6.5942450760       -1.6585732855
 H        -3.6331086063        6.8343500906       -2.9590218813
 H        -2.9094581168        4.7878224599       -1.6317647529
 H        -3.2892732488        4.3561355515       -3.1560283415
 H        -6.8735841666        0.7099699029        0.6306086580
 H        -5.1505944219        0.5283061772        0.6373394811
 H        -6.2343155620       -0.4479578263       -0.6087725326
 H        -5.4582201704        2.5152150906       -3.7869931982
 H        -5.3001663220        0.8554022668       -3.2423370717
 H        -3.9494041154        1.8403236550       -3.6670633868
 H        -3.4362269187        2.2016141934        0.2245924623
 H        -2.5238099845        2.2708748796       -1.2621747372
 H        -3.4560567970        0.8291035937       -0.7931662321
 H        -7.2350670006        7.5163687390       -6.2109074945
 H        -7.5954924697        5.9795787599       -5.2372173525
 H        -5.9775469418        6.2218262355       -6.2075517714
 H        -4.1049653070        7.8659249273       -4.8006261356
 H        -4.9456166958        8.8282394253       -3.5933581220
 H        -5.1701067858        9.0508219276       -5.3344997807
 H       -12.0660096950        5.3639498113       -3.1292654263
 H       -12.3598034227        4.6965150020       -1.4908412531
 H       -10.9808976747        4.1495900480       -2.3502803871
 H       -12.1879957847        7.8431829571       -1.6966613573
 H       -11.0619559207        7.9227077021       -0.3045494198
 H       -12.4089114846        6.7747864966       -0.2284670281
 H        -7.9216389554        2.3185372110        4.7622981338
 H        -9.6273684772        2.8211858253        4.8517833310
 H        -8.2403341509        4.0074014448        4.5423165926
 H        -6.6743229125        2.3631909758        2.4611604076
 H        -7.2238014400        4.0417485568        2.2525201511
 H        -7.6199187216        2.8960689785        1.0804907378
 H       -14.1284701337       -3.3657411562        3.1722641257
 H       -14.9092988025       -3.0346092404        1.6447782410
 H       -15.1057077621       -1.9245487923        2.9225122646
 H       -12.6059446024       -3.0255849373        0.1317787356
 H       -11.7220020976       -3.5714926308        1.5376744129
 H       -11.2227558881       -2.1797576735        0.7720396091
 H       -13.6489035828        3.6712931066        4.3592241852
 H       -13.2713731748        5.1225103620        3.5448824033
 H       -12.7609982497        3.6784172261        2.8686529995
 H       -16.0599947827        3.9406145618        4.4634748522
 H       -17.0902105763        4.5153152316        3.1228799115
 H       -15.8294613522        5.6193996614        3.9467905457
 Na       -7.9232450746        4.0761289984       -2.2170309083
