117

 C       -15.6075213265        4.5646774177       -0.4679469136
 C       -14.7595354993        4.7182890815        0.8355838160
 O       -13.6087095624        5.0636981396        0.8269286065
 C       -15.4252145155        4.3573512191        2.2998931525
 C       -15.5889064897        2.7795867128        2.3958902225
 O       -16.6824970000        2.3363583403        2.5925613719
 C       -14.3167721200        1.8724807694        2.1883342874
 C       -14.4351348561        0.9531617776        0.9828532127
 C       -13.4453364990       -0.1804668913        0.9063793065
 O       -12.6452688149       -0.1639102407        0.0069736222
 C       -13.3011764619       -1.2099116189        2.1235910770
 C       -12.3275538171       -0.5108379676        3.1661253184
 O       -12.6616930770       -0.3031584983        4.3174985356
 C       -10.8738419294       -0.1352304217        2.7524657752
 C       -10.3558370442        0.9511228323        3.5829297889
 C        -9.0333545612        1.5854911974        3.0414898582
 O        -8.3236969194        0.9422983391        2.3235618004
 C        -8.5832339404        3.0629795813        3.4747678628
 C        -9.5111070732        3.9311107264        2.5731668771
 O       -10.1267168855        3.3852686514        1.6565314706
 C        -9.3914853355        5.4903890868        2.6153896777
 C       -10.2612120213        6.1102474305        1.5246993248
 C        -9.7363806105        5.8214351282        0.0779367617
 O        -8.7017906121        5.1906571349       -0.0307511514
 C       -10.5187312704        6.4235602197       -1.3080310091
 C        -9.5529619922        6.6832035567       -2.5259970080
 O        -8.8736430236        5.7978275716       -3.0149337116
 C        -9.5756132654        7.9844886440       -3.2846374106
 C        -8.5717388538        7.9041669176       -4.4915920566
 C        -7.1513872273        7.5207516948       -4.0692714017
 O        -6.6763196166        7.9998672190       -3.0288612448
 C        -6.2099137864        6.5323844083       -4.8117354376
 C        -5.6747174472        5.5248071003       -3.6991405008
 O        -6.3259330017        4.4778566686       -3.5915293397
 C        -4.4939235616        5.8235165134       -2.7548254594
 C        -3.8844347551        4.4696593217       -2.2642823937
 C        -4.9561881423        3.5220070094       -1.5552311662
 O        -5.7006496793        3.9970485918       -0.7079780590
 C        -4.8828909485        1.9195531238       -1.7188056871
 C        -6.3495637652        1.3484584895       -1.5042523423
 O        -7.3327903089        2.0400336246       -1.5945314283
 C        -6.6273397595       -0.1777732267       -1.2704335616
 C        -4.5875383802        1.5615589913       -3.1739673211
 C        -3.8247772146        1.3969958822       -0.8124503695
 C        -7.0023066414        5.6914632688       -5.8252930541
 C        -4.9775296602        7.2875175548       -5.3231251526
 C       -11.5188817632        5.2810775356       -1.6709773723
 C       -11.2523193031        7.7080481145       -0.8541740592
 C        -8.7781937534        3.4246318060        4.9619556125
 C        -7.0520580681        3.2541078106        2.9915798692
 C       -14.6516273346       -1.4196273824        2.7845015025
 C       -12.6251924078       -2.5212000516        1.5941881253
 C       -14.5087215043        4.7970187192        3.4332522330
 C       -16.8325266424        5.0585042403        2.3748893651
 H       -15.0599316550        3.8620597209       -1.0341244505
 H       -15.7499464847        5.4253238617       -1.0161056622
 H       -16.5779494219        4.0542403242       -0.3372502251
 H       -14.2700777458        1.3089278800        3.1484504816
 H       -13.4860152562        2.5551323904        2.1722788804
 H       -14.2963878650        1.6034752856        0.1049894030
 H       -15.4902548958        0.6051460470        1.0108754836
 H       -10.9470421732        0.1003326929        1.7094192201
 H       -10.2497210363       -1.0338859444        2.7771073860
 H       -10.1445923844        0.5673795124        4.5872363015
 H       -11.0905855059        1.7335536695        3.6227423453
 H        -8.3618848808        5.8368760929        2.5439533705
 H        -9.6567960826        5.8328091267        3.5893553035
 H       -10.3875198662        7.1515044521        1.6448658092
 H       -11.3052479462        5.7200409193        1.5258745516
 H        -9.3324989418        8.8607436531       -2.6243842283
 H       -10.5299326727        8.1209231296       -3.7569818944
 H        -8.5586196899        8.9069528310       -5.0316999188
 H        -8.9152477011        7.2607820407       -5.2726720163
 H        -4.8864056972        6.2917298384       -1.8877739734
 H        -3.7428662437        6.4318955945       -3.2956892497
 H        -3.1522654646        4.7795966129       -1.5046874711
 H        -3.5481822902        3.9704473649       -3.1832913073
 H        -7.3186331280       -0.4837241211       -2.0308085489
 H        -7.1376722756       -0.3228794519       -0.2950334201
 H        -5.6787193850       -0.7619953907       -1.1942781820
 H        -5.3083304686        1.9415681524       -3.9113643363
 H        -4.5600445557        0.4602028313       -3.2884385818
 H        -3.6284664530        1.8737572054       -3.4483656757
 H        -4.0896807624        1.5726166271        0.2469976857
 H        -2.7949573216        1.8666164735       -1.0695923824
 H        -3.6920245565        0.3533775458       -0.9918147652
 H        -7.3733327402        6.3988606978       -6.5814100189
 H        -7.7823443592        5.1184548032       -5.2589694628
 H        -6.3386761556        4.9185118080       -6.2146022273
 H        -4.1115872698        6.7647256662       -5.5656205201
 H        -4.8269433400        8.0908588906       -4.5756900159
 H        -5.1849885539        7.8794091181       -6.1761523652
 H       -11.9271120332        5.5616131424       -2.6795696845
 H       -12.3188695993        5.3093933893       -0.9620792699
 H       -11.1061778922        4.2746552306       -1.7646483368
 H       -11.8420018304        8.1455113680       -1.6757339138
 H       -10.5581629324        8.5125720589       -0.6289433815
 H       -12.0281223198        7.4931318455       -0.0504196674
 H        -8.0588738643        2.8151692252        5.4760338754
 H        -9.8035100879        3.1481620452        5.2531003639
 H        -8.5089689985        4.4464191784        5.0790312478
 H        -6.4760397349        2.5835111946        3.6184449008
 H        -6.7172544946        4.2766086209        3.1191349964
 H        -6.9071600737        2.9025124151        1.9899108487
 H       -14.6369804645       -2.1296280601        3.6511815062
 H       -15.4002784436       -1.6635007548        2.1045330140
 H       -14.8787697331       -0.4483389373        3.2610094322
 H       -13.3105211354       -3.1141826780        0.9794725303
 H       -12.2838810998       -3.0685719299        2.4480731069
 H       -11.7891129596       -2.3570041659        0.9288226200
 H       -14.9709601454        4.6472013780        4.3792674529
 H       -14.3698730132        5.8788632527        3.3868599745
 H       -13.5451183397        4.2769002895        3.2790225690
 H       -17.3976690521        4.8115178190        3.2908418857
 H       -17.4787211097        4.6898658121        1.5444847797
 H       -16.9208623325        6.1608667854        2.2275070706
 Na       -7.8885344033        4.1334667931       -2.0159370924
