117

 C       -15.7795643554        4.6506988027       -0.1313799501
 C       -14.6269463077        4.7437183272        0.9510142896
 O       -13.4915358755        5.1269431808        0.7482000532
 C       -15.1621168176        4.3768274901        2.4076340496
 C       -15.4452035728        2.8358518570        2.2620354577
 O       -16.6023899637        2.4621705190        2.0384627275
 C       -14.2625224519        1.8474730844        2.2506424130
 C       -14.5003063692        0.8223659132        1.1672131330
 C       -13.4163752063       -0.1796861388        0.9535154577
 O       -12.6411494982       -0.1606665797        0.0048981365
 C       -13.2100551010       -1.3052773484        1.9914933381
 C       -12.3920367552       -0.6491581333        3.0869795155
 O       -13.0221472590       -0.2197413517        4.0687964520
 C       -10.8606135718       -0.4315198369        2.9218916408
 C       -10.3459817101        0.8400863636        3.4653887929
 C        -8.9314638469        1.2740767081        2.9369410400
 O        -8.1466805810        0.5262576501        2.3571686328
 C        -8.6908756790        2.8438137200        3.0705863178
 C        -9.6292861075        3.7080824599        2.1834152636
 O       -10.6800049672        3.2511133538        1.6566699197
 C        -9.3123994621        5.2702589435        2.2703265069
 C       -10.1422875871        6.1804291316        1.4047598668
 C        -9.8084593177        5.9757599543       -0.0441314088
 O        -8.7539893145        5.4203746594       -0.2290833361
 C       -10.7011828255        6.5054025401       -1.2677000306
 C        -9.8447518824        6.7540900269       -2.5476049029
 O        -9.3208565492        5.7625670844       -3.0082483992
 C        -9.6421111696        8.1117811637       -3.1487924052
 C        -8.5633732839        8.0467504617       -4.2809430228
 C        -7.1985519565        7.4895025478       -3.7571146101
 O        -6.8128320588        7.8007887589       -2.6161811003
 C        -6.2191461701        6.6702975370       -4.6678719561
 C        -5.6307003969        5.5823169985       -3.7329978175
 O        -6.1118771095        4.4530200114       -3.8162040564
 C        -4.5894890837        5.8805124950       -2.6748167000
 C        -3.9402180728        4.6181923363       -2.0630377789
 C        -4.9755792772        3.6832644190       -1.4783480392
 O        -5.8037904305        4.1975949000       -0.7444533104
 C        -4.9019412656        2.1003706558       -1.7210702315
 C        -6.2018898801        1.2917358262       -1.3221851851
 O        -7.3186335358        1.7114344902       -1.5742369048
 C        -6.0137444419       -0.1519522559       -0.8021280916
 C        -4.7069741699        1.8039088866       -3.2383260356
 C        -3.5554968620        1.6545773002       -0.8965922005
 C        -6.9889004873        6.0618286745       -5.8864587106
 C        -5.1274101151        7.7420424852       -4.9819189194
 C       -11.8960556403        5.5677349024       -1.7667773874
 C       -11.3417899570        7.7672222725       -0.7514004534
 C        -9.0053356041        3.1776251959        4.5841098054
 C        -7.2251028291        3.2038410706        2.6657627653
 C       -14.5028251752       -1.9676116660        2.6603736756
 C       -12.3676138584       -2.4064347573        1.4097520433
 C       -14.0588513645        4.5577794375        3.5098283513
 C       -16.4238523167        5.2068284632        2.8205285911
 H       -15.4475583176        4.3983401829       -1.0719134851
 H       -16.4454398413        5.4635818432       -0.2045633778
 H       -16.4003996745        3.8301677573        0.2765875720
 H       -14.2281634600        1.3613662861        3.2543487667
 H       -13.3227446068        2.3734449520        2.0146410040
 H       -14.6306533783        1.3934201415        0.2178228774
 H       -15.3961603768        0.2273252244        1.3507715321
 H       -10.7636459860       -0.4407921747        1.8072796921
 H       -10.3455795999       -1.3536199712        3.2156161702
 H       -10.2165243351        0.8334512736        4.5441423133
 H       -11.0195093090        1.6160752357        3.1391338915
 H        -8.2604312301        5.4107235008        2.1327380003
 H        -9.4915159558        5.6621695675        3.3447590170
 H        -9.8279666035        7.1710203924        1.6332828424
 H       -11.2329831014        6.2140560622        1.6750158025
 H        -9.2324406526        8.8072528422       -2.3535459530
 H       -10.5775045109        8.4316314779       -3.5404047868
 H        -8.3038505039        9.0454152635       -4.7222006237
 H        -8.9201923098        7.5517597799       -5.1543745429
 H        -5.0895978092        6.4489888293       -1.9428732342
 H        -3.7837639365        6.4059178280       -3.1234432304
 H        -3.4249804411        4.9892889265       -1.2030507310
 H        -3.3773631732        4.2359922318       -2.9400125444
 H        -6.9384153999       -0.6292587960       -0.8629489560
 H        -5.9206419585       -0.0608067756        0.3198339901
 H        -5.0621557444       -0.5601687685       -1.1436952748
 H        -5.4269406375        2.4696087400       -3.7741871455
 H        -5.0708683108        0.7888899716       -3.6360375041
 H        -3.6911006033        1.9027369651       -3.6357916958
 H        -3.7188839079        1.6391231074        0.2427973013
 H        -2.6820447417        2.2801860317       -1.1790152605
 H        -3.2597510042        0.6798755688       -1.1419148975
 H        -7.5341285108        6.8421436651       -6.3498310543
 H        -7.4698511301        5.1730998803       -5.5049151539
 H        -6.2200576179        5.7489708571       -6.5399322548
 H        -4.2750335785        7.3554621915       -5.5048110319
 H        -4.7068329914        8.1185438223       -4.0171726654
 H        -5.4741340859        8.6320288054       -5.4478929070
 H       -12.5478060970        6.0815296948       -2.4776521878
 H       -12.5179571880        5.3397974455       -0.9304568002
 H       -11.5016805693        4.6601344303       -2.2272649996
 H       -11.9979389541        8.3765140045       -1.3937613657
 H       -10.5266356506        8.3747646975       -0.2877732597
 H       -11.9730124991        7.4465913036        0.0827608176
 H        -8.5933921754        2.4262125902        5.1590818614
 H       -10.0714237635        3.2330209267        4.6913865859
 H        -8.5975900306        4.1529884121        4.7635416080
 H        -6.4879368178        2.5938242903        3.1996436600
 H        -6.9886916650        4.2008498956        2.8924576040
 H        -7.1410610702        2.9945632209        1.6314102553
 H       -14.1848507735       -2.7909153727        3.3258548735
 H       -15.0533750437       -2.4376840988        1.8986208012
 H       -15.2133372564       -1.2657999161        3.1126109947
 H       -12.8689644492       -2.8439862106        0.5493153057
 H       -12.2041317625       -3.2090174379        2.1192290112
 H       -11.4291878121       -2.0743192684        0.9946799295
 H       -14.3855519719        4.2243525103        4.5531011709
 H       -13.7500664827        5.6070006921        3.4909121045
 H       -13.1413017901        3.9440244570        3.2872782675
 H       -16.6829577523        5.0036675191        3.8305231805
 H       -17.3205282180        4.9524395636        2.1724214084
 H       -16.3291779110        6.2378312475        2.7958867241
 Na       -7.7971405710        3.9957913196       -1.8563848055
