117

 C       -15.6037208422        4.5942091876       -0.2944627559
 C       -14.7450613055        4.7176114745        0.9025920498
 O       -13.5651353775        5.0882445077        0.8032736754
 C       -15.3503711703        4.3552841548        2.2334535484
 C       -15.5992556225        2.7924921266        2.3536457268
 O       -16.7254124583        2.3172124488        2.4985736175
 C       -14.4097762782        1.7994854369        2.2814397229
 C       -14.4827285760        0.8833882647        1.0532927371
 C       -13.3291736160       -0.1548230402        0.9065775859
 O       -12.5604055472       -0.2740611035       -0.0517860131
 C       -13.2764534848       -1.1847903580        2.1214766010
 C       -12.2762427142       -0.5625950060        3.1202383160
 O       -12.6575188406       -0.2192369851        4.2529142411
 C       -10.8448904377       -0.2015162788        2.7399278539
 C       -10.3147811409        0.9359781308        3.6407368195
 C        -8.9918187492        1.4942843505        3.1408797168
 O        -8.3108341605        0.8445112962        2.3447805191
 C        -8.5763035932        2.9677815920        3.3878274538
 C        -9.4187776280        3.9160709538        2.3691961279
 O       -10.3038589684        3.4323049087        1.6430542420
 C        -9.4172225159        5.5012060912        2.4443689261
 C       -10.3212779580        6.0645211873        1.3806981245
 C        -9.6691073553        5.9245477683        0.0446569547
 O        -8.8005602966        5.1289898645       -0.1024426375
 C       -10.5296997341        6.5604005172       -1.2311246631
 C        -9.6737888827        6.6876994374       -2.5218250083
 O        -8.9459777701        5.7608823029       -2.9271445473
 C        -9.5872893233        8.0373612101       -3.2765820820
 C        -8.5694517776        7.8552860676       -4.4550187073
 C        -7.1624591968        7.5050664476       -3.8655267097
 O        -6.7855989862        8.0469615116       -2.8089530238
 C        -6.2225360858        6.5993098052       -4.7247760401
 C        -5.6938364672        5.5422411568       -3.6440300352
 O        -6.2616670114        4.4750941218       -3.6131389359
 C        -4.5380881983        5.8182326756       -2.7543578186
 C        -3.9463466777        4.4735994365       -2.2473035507
 C        -4.9597373141        3.5975226515       -1.5089844789
 O        -5.7300742004        3.9958675868       -0.6773663289
 C        -4.8837026629        1.9876125910       -1.7895518417
 C        -6.3296113910        1.4190528003       -1.4878199983
 O        -7.4025383963        2.0271265781       -1.4958583724
 C        -6.4892614606       -0.0995899787       -1.1312185263
 C        -4.4848530216        1.6229701880       -3.2862928807
 C        -3.7849184876        1.4584186298       -0.8931387793
 C        -6.9105262825        5.6900678457       -5.8465655692
 C        -5.0522162223        7.3711191579       -5.3506414215
 C       -11.5237161526        5.3297086998       -1.4913467728
 C       -11.2746285592        7.8423591111       -0.9344044855
 C        -8.8470005014        3.3527829029        4.8568287328
 C        -7.1191625456        3.0514971785        2.9745416773
 C       -14.6733075303       -1.5635661632        2.6537623741
 C       -12.6354482233       -2.5218491633        1.5591248001
 C       -14.3581672529        4.9435770521        3.3186270560
 C       -16.6758012919        5.0284290292        2.4870798140
 H       -15.1260342442        3.9750246976       -1.0293728138
 H       -15.6340709443        5.6534503485       -0.6932246279
 H       -16.6595634220        4.2566063401       -0.1918122336
 H       -14.4380347780        1.2374386647        3.2067825424
 H       -13.5342468783        2.4434612794        2.2732305716
 H       -14.4909345581        1.5796334302        0.1513843163
 H       -15.4118601249        0.3977849308        1.1266437891
 H       -10.8878579512       -0.0693761215        1.6494189377
 H       -10.2716405974       -1.0390546178        2.8567250783
 H       -10.1906468334        0.5123399279        4.6562743239
 H       -10.9906193307        1.8054243462        3.6339986664
 H        -8.5235415956        5.9546540862        2.3580052734
 H        -9.7248350305        5.8105480480        3.4178874602
 H       -10.4684805270        7.1179764895        1.5794241062
 H       -11.3507082854        5.6889913781        1.2455303534
 H        -9.0767787275        8.7536693162       -2.5587296900
 H       -10.4771774371        8.4406121228       -3.6531965737
 H        -8.5629644532        8.7244485184       -5.1222351036
 H        -8.8648918635        7.0579010583       -5.1732501021
 H        -4.9511425137        6.3965477981       -1.8351790240
 H        -3.8127476160        6.3687728637       -3.3450156990
 H        -3.1884828290        4.7097782792       -1.5648022023
 H        -3.7221879673        3.9474715619       -3.2182071738
 H        -7.1822916477       -0.4470371919       -1.8608118875
 H        -7.0193779877       -0.2813138462       -0.1571148919
 H        -5.5400324198       -0.5928341657       -1.0731438952
 H        -5.1114639847        1.8572286445       -4.0813813988
 H        -4.3739009702        0.5607928777       -3.3220102575
 H        -3.4854471966        1.9223370833       -3.4706141836
 H        -4.0668350547        1.3787629242        0.2087432382
 H        -2.8767648401        1.9721079462       -1.0449175094
 H        -3.5618437975        0.4644462332       -1.2432195129
 H        -7.0296268101        6.3463191290       -6.7431105669
 H        -7.8098211620        5.1366810044       -5.4696009924
 H        -6.1917931463        4.8638999562       -6.0016256798
 H        -4.2409634896        6.7663815850       -5.8083999699
 H        -4.6781294886        8.0476780681       -4.5859444763
 H        -5.3444091989        8.0992082453       -6.0822913641
 H       -12.1398034431        5.5676551440       -2.3476501187
 H       -12.1904052089        5.1581432518       -0.6241198874
 H       -10.9600599348        4.4110643535       -1.7788874580
 H       -11.8728244017        8.0578393833       -1.8219445860
 H       -10.6548138683        8.7572960137       -0.8319024350
 H       -11.9904305656        7.7279504296       -0.1954222303
 H        -8.2315009211        2.6492270558        5.3891438597
 H        -9.9023761615        3.1703064659        5.0751356782
 H        -8.4642037876        4.4245126346        5.0254641087
 H        -6.5415315774        2.1743825964        3.4272059718
 H        -6.6969148969        3.9866191318        3.2930899762
 H        -7.0382506444        2.9025067646        1.8871497013
 H       -14.5732048812       -2.4466288350        3.2789555227
 H       -15.3644834969       -1.8036104424        1.8284081778
 H       -15.1079048769       -0.7705366862        3.2785341323
 H       -13.1866076136       -3.0693548303        0.8314117274
 H       -12.4068573723       -3.1112229639        2.4775231101
 H       -11.6773979982       -2.3467876144        1.0348326050
 H       -14.9111298181        5.1384672451        4.2803209098
 H       -13.9114821496        5.8286973531        3.0368755596
 H       -13.6049725311        4.1957674791        3.4390318070
 H       -17.0001173325        4.8626628954        3.5523445976
 H       -17.5907015594        4.7463757767        1.8179516201
 H       -16.6514737157        6.0890471811        2.3606312723
 Na       -7.9137001789        4.1175141068       -2.0334341296
