117

 C       -15.6980419331        4.6915957782       -0.0032923497
 C       -14.6979427858        4.8026301921        1.0768751207
 O       -13.5507344962        5.1642089631        0.8165702306
 C       -15.1076918194        4.3451003245        2.4597245642
 C       -15.4700681955        2.8245652839        2.2632451466
 O       -16.5835776606        2.4801848879        1.9091220888
 C       -14.2811259971        1.8832343581        2.1325669957
 C       -14.6530985550        0.7315071459        1.1835957661
 C       -13.4583330509       -0.2504746624        0.9398139109
 O       -12.6823018701       -0.0967934257        0.0276398553
 C       -13.1380873039       -1.4121019667        1.9523740067
 C       -12.3816173564       -0.6639756729        3.1428100219
 O       -12.9160018446       -0.1681788500        4.1171611821
 C       -10.8283651537       -0.5060039179        2.9328321950
 C       -10.3724785627        0.8020865220        3.4082719720
 C        -9.0333030926        1.3247265925        2.7974517081
 O        -8.1722485560        0.5478437597        2.4066685195
 C        -8.7357269440        2.8382478139        3.0520330647
 C        -9.7598088248        3.7658455844        2.2815621486
 O       -10.6504452894        3.3070967330        1.6382855927
 C        -9.4285206830        5.2631022497        2.2776195456
 C       -10.2591221122        6.0946495539        1.3067397806
 C        -9.8110169419        5.8232473821       -0.1393877969
 O        -8.7142496714        5.4253922394       -0.4147219256
 C       -10.7587224997        6.4620231758       -1.2000959035
 C        -9.7908427529        6.7045351746       -2.4815467698
 O        -9.2719553852        5.7307659314       -3.0467832068
 C        -9.6352263963        8.1172765358       -3.0425426125
 C        -8.5633686802        8.1443333506       -4.1336564255
 C        -7.2283380763        7.5817139080       -3.6063876191
 O        -6.9088885694        7.7464719272       -2.4712618373
 C        -6.2289241768        6.7969425092       -4.5957145182
 C        -5.6879488945        5.5637136578       -3.7211926280
 O        -6.1586505617        4.4654642871       -3.8460234161
 C        -4.5534787227        5.9149210455       -2.8040895590
 C        -4.0003957734        4.6163066349       -2.1001709256
 C        -5.0752649951        3.7077979596       -1.4254475593
 O        -5.9268809565        4.1373785573       -0.6899432832
 C        -4.9026093989        2.1832952077       -1.6182768909
 C        -6.1061979634        1.2990975494       -1.2576758667
 O        -7.2065740257        1.7216775289       -1.6163021810
 C        -5.8912711541       -0.1093703410       -0.6833561734
 C        -4.6634932460        1.7828698722       -3.1056385230
 C        -3.5216451332        1.6810538714       -1.0106159531
 C        -6.7964527413        6.2066390354       -5.9160897911
 C        -5.1455466667        7.8171495426       -5.0458379125
 C       -11.9120908398        5.6292283646       -1.7952240248
 C       -11.4061895741        7.8108028546       -0.6965482540
 C        -8.9100252549        3.1513313202        4.5847729608
 C        -7.2887086099        3.0651603610        2.5742171048
 C       -14.4400324604       -2.0156034220        2.5370680419
 C       -12.3728445124       -2.5612378833        1.2707830867
 C       -13.9427598577        4.5607648449        3.5214675647
 C       -16.2804596141        5.1381775365        2.9005785616
 H       -15.2042308247        4.8737631066       -0.9252014882
 H       -16.4148425155        5.5185440408        0.1140710569
 H       -16.2783075151        3.8552795933        0.0636180242
 H       -14.1420401905        1.4343860329        3.1198185021
 H       -13.3577312598        2.3748795822        1.7747543931
 H       -14.8756861911        1.1810630914        0.1459886508
 H       -15.5081981723        0.1850297015        1.4907727918
 H       -10.5649911642       -0.7461808300        1.8934661465
 H       -10.4319532997       -1.2792037529        3.4752737733
 H       -10.1156114422        0.7416930416        4.4705546847
 H       -11.1765205452        1.5240660751        3.2192929488
 H        -8.4870546191        5.1993976237        1.8361365687
 H        -9.2628063359        5.7489617931        3.2174218943
 H       -10.2252021118        7.1444491146        1.5365867437
 H       -11.3188651349        5.8472537063        1.3435012830
 H        -9.3808701645        8.8414921488       -2.2236215185
 H       -10.5828926701        8.2904023241       -3.4956264408
 H        -8.3341706683        9.0698035752       -4.6399525663
 H        -8.9478159677        7.5371356974       -5.0146269236
 H        -5.0990478870        6.5413912123       -2.0176301001
 H        -3.8110750852        6.4752329243       -3.2951562524
 H        -3.3523172873        4.9529322802       -1.3257270278
 H        -3.5485938565        4.0803470714       -2.9827268419
 H        -6.9065874141       -0.4914537474       -0.4843470265
 H        -5.4215222722       -0.1051794846        0.3217760580
 H        -5.2220229542       -0.6066861870       -1.3504900294
 H        -5.4581184795        2.1997770555       -3.6967666694
 H        -4.7217700169        0.7242774856       -3.3567103365
 H        -3.6723318762        2.1297709533       -3.5286614388
 H        -3.4352942626        1.7885879823        0.1043359156
 H        -2.7454398452        2.2530564409       -1.4655480108
 H        -3.2798467030        0.5846154852       -1.2662462384
 H        -7.2119281106        6.9681928353       -6.5840502574
 H        -7.3545269624        5.3522058437       -5.5611251380
 H        -5.8574435960        5.8345553397       -6.3509477769
 H        -4.2040246257        7.3675122411       -5.3879309737
 H        -4.8502179321        8.5041320933       -4.3114444598
 H        -5.5623299162        8.4041029358       -5.8196994390
 H       -12.4098337195        6.0262700764       -2.6404552025
 H       -12.6971382296        5.4613419841       -1.0245296528
 H       -11.4222704475        4.6815929831       -2.0414978190
 H       -11.9149866267        8.3456623776       -1.5422771734
 H       -10.6275321441        8.4873195887       -0.1878137521
 H       -12.1737172093        7.6255946880        0.0244963676
 H        -8.3834920747        2.4280836660        5.1450396854
 H        -9.9399992702        3.1088612682        4.7590980191
 H        -8.5991282294        4.2019086381        4.7526838183
 H        -6.5738738070        2.4053021095        3.0645304675
 H        -6.9840916350        4.0220883093        2.8637384990
 H        -7.2474119850        2.9359420667        1.5170184559
 H       -14.2449895381       -2.7611620957        3.2538398656
 H       -14.9371352129       -2.5411211326        1.6775206183
 H       -15.1953511714       -1.3185377012        2.8209569255
 H       -13.0506802531       -3.1186949267        0.6678262566
 H       -11.9384646529       -3.3324209592        1.9263958661
 H       -11.6006405643       -2.1751660548        0.6049695044
 H       -14.0198063055        3.8312981872        4.4032573943
 H       -13.9482460932        5.5793550947        3.8380844151
 H       -12.9648054717        4.3809209858        3.1104439251
 H       -16.5093764943        4.9570525214        3.9855569564
 H       -17.2246353506        5.0920388980        2.3190093505
 H       -15.9670297251        6.1713381788        2.9526873965
 Na       -7.8098915397        4.0221595058       -1.9346098620
