117

 C       -15.2846148127        4.5394809413       -0.5689104033
 C       -14.9413739682        4.9419128846        0.8038898628
 O       -14.0822041297        5.8060539479        0.9114874184
 C       -15.8317253385        4.4693998931        1.9672331588
 C       -15.8356789565        2.9144919629        2.2082758275
 O       -16.7695469837        2.2823809056        2.7076957157
 C       -14.4235319403        2.2391126435        2.1435954276
 C       -14.6263881310        0.9433619300        1.3370256818
 C       -13.4944483341       -0.0966488529        1.1836449761
 O       -12.8090484984       -0.2373043130        0.1582193565
 C       -13.2403301921       -0.9604632715        2.4295247827
 C       -12.1907019952       -0.1476527289        3.3990332701
 O       -12.4939117766        0.1102075423        4.5376801419
 C       -10.8846904744        0.3693098828        2.6985904287
 C       -10.1190275154        1.3123805489        3.6841529763
 C        -8.7840218381        1.9202398024        3.1373604554
 O        -7.8516204714        1.2607130382        2.6959815137
 C        -8.6621924541        3.4710942295        3.4016955123
 C        -9.7195869222        4.3471867496        2.4433513099
 O       -10.4485385737        3.7674429829        1.7302275859
 C        -9.8293527523        5.8323253247        2.7655725246
 C       -10.0862323697        6.6851359525        1.4611467649
 C        -9.4710647959        6.0956374623        0.1022355248
 O        -8.3809073141        5.5568109973        0.1111759061
 C       -10.3039476695        6.1850371926       -1.2616020720
 C        -9.3209758126        6.5980552011       -2.4117837640
 O        -8.6912059905        5.7213937605       -2.9252137167
 C        -9.0513669211        8.0342309049       -2.9262897728
 C        -8.2550305557        7.9099686469       -4.2541523939
 C        -6.8264908926        7.3353174938       -4.0359441546
 O        -6.1167496119        7.7670898301       -3.2082310452
 C        -6.2783565153        6.2389644493       -4.9881222397
 C        -5.8848234684        5.0366951280       -4.0068287391
 O        -6.6447036256        4.0923271979       -3.9437408125
 C        -4.6641427717        5.1774776844       -3.1479090855
 C        -4.1376274767        3.7956874822       -2.8038843553
 C        -4.9686189980        3.0642432283       -1.7962011993
 O        -5.5521720873        3.7063111761       -0.9001091587
 C        -4.8653623013        1.4523266178       -1.7725240960
 C        -6.4049755758        0.9662943016       -1.7605996329
 O        -7.3264138043        1.7554742192       -1.7887963208
 C        -6.6481430651       -0.5309491221       -1.7570224897
 C        -4.0789439293        0.9685754396       -2.9799866869
 C        -4.1685923911        1.0950019277       -0.3503772346
 C        -7.3638430457        5.7092415889       -6.0125184636
 C        -5.0065747193        6.7655880570       -5.6552427859
 C       -10.6831282416        4.6377155976       -1.5681329854
 C       -11.5168278849        7.0685602928       -0.9920992436
 C        -8.8288503996        3.7764481157        4.9572641980
 C        -7.3008740243        3.9114466353        2.8950994650
 C       -14.4470025320       -1.3646911690        3.3465709490
 C       -12.5542493231       -2.2586931710        1.8693642801
 C       -15.3859623695        5.1574444275        3.2465332187
 C       -17.2855749206        4.8836645349        1.6614734439
 H       -14.6780240952        4.9909788485       -1.4481367548
 H       -16.3744056608        4.7927628471       -0.7887905821
 H       -15.2280099280        3.4364188924       -0.6331561766
 H       -14.0605653841        2.0623497676        3.1692335196
 H       -13.6950366749        2.8565783043        1.6772366550
 H       -14.9721456216        1.2048523110        0.3685383213
 H       -15.4748493815        0.4080166124        1.8394050908
 H       -11.2117279163        0.9186262821        1.8902506500
 H       -10.2916017856       -0.4930285405        2.3865383035
 H        -9.8384184305        0.7517371142        4.6345043257
 H       -10.7077536626        2.1644840523        4.0551431615
 H        -8.9252774440        6.2246796778        3.1911780162
 H       -10.6267252695        5.9309449951        3.3607734357
 H        -9.6237125956        7.6721892674        1.6509467907
 H       -11.1747209910        6.8391886284        1.3001675048
 H        -8.4945052150        8.4772112737       -2.0937236016
 H        -9.8437860152        8.7844197539       -3.0695074548
 H        -8.1125223800        8.9035250024       -4.7105924971
 H        -8.7962721489        7.2637166437       -4.9159856866
 H        -4.8571331143        5.6878216354       -2.1757411225
 H        -3.9056967589        5.8753492830       -3.7106059264
 H        -3.0754579804        3.9054704646       -2.4211436564
 H        -3.7963963663        3.2722329828       -3.6342549132
 H        -7.5405076749       -0.8024247275       -1.1239057435
 H        -5.8140651446       -1.0625303680       -1.4298299796
 H        -7.1238047485       -0.9002058554       -2.6612480926
 H        -4.4602750556        1.3731050004       -3.9363178378
 H        -4.1635685691       -0.1203380898       -3.0184959575
 H        -2.9734071215        1.1928686391       -2.8743279050
 H        -4.7151478781        1.4315073779        0.4475701876
 H        -3.1484074350        1.4261745051       -0.2743022463
 H        -4.2193494976       -0.0162291683       -0.3118557902
 H        -7.8215887450        6.5227231360       -6.5899024835
 H        -8.2255512178        5.3656636743       -5.4236202685
 H        -7.0474935449        4.9424274197       -6.7776799550
 H        -4.3790687200        6.0637793697       -6.1908889947
 H        -4.3206344566        7.1266265017       -4.9009148953
 H        -5.3539290469        7.6509891463       -6.2735198120
 H       -10.6837947120        4.5477334375       -2.6685013697
 H       -11.7339051398        4.5641178220       -1.3094164644
 H       -10.1550195172        3.8744297640       -1.0430473030
 H       -11.9775070298        7.2686411936       -1.9220499160
 H       -11.2378755321        7.9442169715       -0.4992417478
 H       -12.2793849548        6.5827476537       -0.3410098005
 H        -8.0016375362        3.1570666369        5.4253922098
 H        -9.7895858104        3.4199381595        5.3714585128
 H        -8.7500678108        4.8046926145        5.1534305509
 H        -6.5659591377        3.5103393774        3.5244205906
 H        -7.2131946577        5.0337003902        2.9655105699
 H        -7.1524253934        3.6019840311        1.8609365095
 H       -14.0084028831       -1.9572046275        4.1831557136
 H       -15.1425333029       -2.0481934324        2.8265209093
 H       -14.9561382750       -0.4557704538        3.6990657692
 H       -13.2854536512       -3.0980730375        1.8842317855
 H       -11.8846729062       -2.5565952802        2.6540583373
 H       -12.0488279077       -2.0830603011        0.9327135617
 H       -14.4680716728        4.7283748714        3.4382519528
 H       -16.2191383977        4.8599377879        3.9442415490
 H       -15.3587424265        6.2591158477        3.1772122774
 H       -18.0041184097        4.7317140198        2.4665268058
 H       -17.6909514988        4.3814541295        0.8464097362
 H       -17.4641770277        5.9754058386        1.4828284761
 Na       -7.7943281564        4.0670973066       -1.5846575298
