117

 C       -15.4445031404        4.3460207469       -0.4416640539
 C       -14.8794688769        4.7771029734        0.8984300643
 O       -13.8091237676        5.3034957748        0.9712711637
 C       -15.6549619062        4.4272998440        2.1899978827
 C       -15.6680153865        2.8417675080        2.2961309770
 O       -16.6329488392        2.2694733314        2.7019555773
 C       -14.4095713397        2.0744346808        1.8942615027
 C       -14.7113538811        0.8818951965        0.9940143346
 C       -13.5196976270       -0.1181873534        1.0301164503
 O       -12.7016447874       -0.0861099891        0.1598118755
 C       -13.2565743434       -0.9707920106        2.2605492233
 C       -12.2374791900       -0.3501855261        3.2908733778
 O       -12.4186534189       -0.2521647148        4.4607776700
 C       -10.9247787605        0.2123562104        2.6459940906
 C       -10.2487865721        1.1606472123        3.6169813970
 C        -8.8457769773        1.7499475676        3.1175347350
 O        -8.0889090134        1.0627245720        2.4804642267
 C        -8.6007536419        3.2814723545        3.3885532482
 C        -9.5266193096        4.1105875155        2.4863928976
 O       -10.2835562911        3.5838475465        1.7387400987
 C        -9.4937084571        5.6518024450        2.5875740804
 C       -10.3895242439        6.2811137553        1.4666590284
 C        -9.6384338482        5.9872942562        0.0828278109
 O        -8.4963319143        5.4969613226        0.0916022678
 C       -10.3788019898        6.2255433741       -1.2833817810
 C        -9.3052632375        6.5154700551       -2.4266893340
 O        -8.5633722902        5.6498570542       -2.8132944529
 C        -9.1264257076        7.9193817318       -2.9949030421
 C        -8.4339718260        7.8418939789       -4.3081833358
 C        -6.9454074130        7.5251174720       -4.1433917671
 O        -6.2937473611        8.1067409998       -3.3318989334
 C        -6.1993447732        6.3477434733       -4.9981043749
 C        -5.7737795888        5.2497680098       -3.9845415272
 O        -6.3345953631        4.1587998829       -4.0535889430
 C        -4.6338041743        5.5362873713       -3.0271064110
 C        -4.0468529831        4.2046972815       -2.4618248663
 C        -5.0532060642        3.4026875930       -1.6309040273
 O        -5.6334772476        3.8807268665       -0.6390232547
 C        -5.0777917752        1.8557093806       -1.7995474409
 C        -6.5126152166        1.0980160087       -1.7315301463
 O        -7.5224684924        1.7313268836       -1.7874950077
 C        -6.6131787090       -0.4042567571       -1.4756994431
 C        -4.3925033122        1.3595334773       -3.0971385744
 C        -4.2330200460        1.3785047915       -0.5633412153
 C        -7.2373275747        5.7941808876       -5.9868435032
 C        -4.9558155180        7.1096479035       -5.5129799017
 C       -11.1650630657        4.9195081205       -1.4278519138
 C       -11.3956428126        7.5008335759       -1.1490469342
 C        -8.9438648766        3.6179685142        4.8756234256
 C        -7.1247170415        3.4779729523        3.1530777220
 C       -14.5816707838       -1.1631699736        3.0614649112
 C       -12.6697364844       -2.3164393789        1.8646473960
 C       -15.0353201534        5.1918463506        3.4230707694
 C       -17.1435804940        4.7995989647        2.0425548118
 H       -14.6442831008        4.3171058245       -1.2569813531
 H       -16.2757156037        4.9012933752       -0.8609130415
 H       -15.6582418969        3.2771298233       -0.3557343317
 H       -13.9113065045        1.7009269480        2.8135355928
 H       -13.6773781751        2.7102940510        1.4520615378
 H       -14.7855612041        1.2669168895       -0.0100134402
 H       -15.6693692867        0.3591326527        1.2151363393
 H       -11.1886530705        0.7376936945        1.7908616687
 H       -10.2847501634       -0.6225006106        2.3671723292
 H       -10.0014252345        0.6486311924        4.5773642457
 H       -10.9217793238        1.9638701783        3.9021245942
 H        -8.4477540030        5.9586399603        2.5319077805
 H        -9.8421831853        5.9353296743        3.4999230963
 H       -10.6066503524        7.3262469361        1.5508218750
 H       -11.3799429639        5.7864218617        1.5037412845
 H        -8.5743392850        8.5931747540       -2.3103447479
 H       -10.1100835004        8.3465498247       -3.1614727808
 H        -8.4425186757        8.8237445583       -4.8734840176
 H        -8.8713218386        7.0874304635       -4.9403682084
 H        -5.1255347759        6.1000050922       -2.2332688634
 H        -3.8460043500        6.2193617877       -3.5268017236
 H        -3.1047894129        4.4072605728       -1.8528399280
 H        -3.6649042214        3.7177388005       -3.3520216986
 H        -7.6393328235       -0.6834433514       -1.7027827148
 H        -6.3056900024       -0.5955301133       -0.4698649594
 H        -6.0312147128       -1.0903037602       -2.1330373466
 H        -4.7634436459        1.8655127148       -3.9571565244
 H        -4.5297017275        0.3180847323       -3.2468264452
 H        -3.3942067662        1.6312228090       -3.1125399238
 H        -4.7387201803        1.7106766625        0.2918846127
 H        -3.2197133973        1.8995637105       -0.5120820606
 H        -4.1671408868        0.2823324714       -0.5185506161
 H        -7.6015970409        6.5131098829       -6.7752875835
 H        -8.1022578290        5.4339334032       -5.3544691925
 H        -6.7007806370        4.9592719550       -6.5237136506
 H        -4.2794213281        6.5209277630       -6.1264757699
 H        -4.3585643301        7.5294436871       -4.6556452307
 H        -5.2383068212        7.9537835190       -6.1849013586
 H       -12.0697165110        5.0421266262       -2.0839330202
 H       -11.3736995859        4.5818398276       -0.4343345869
 H       -10.5187881123        4.1237438699       -1.7921627166
 H       -11.9530765271        7.6915551102       -2.0324890660
 H       -10.8023212136        8.3479747310       -0.9872423951
 H       -12.0975122401        7.4838776095       -0.2687963194
 H        -8.4739614644        2.8463723868        5.5594209659
 H       -10.0751631670        3.6610672832        4.9052821615
 H        -8.5111279729        4.5785742612        5.0750397792
 H        -6.5664031351        2.6920092076        3.6475173380
 H        -6.8109565280        4.5302605808        3.4484992919
 H        -6.9964100920        3.4478670291        2.0479159424
 H       -14.4869833386       -1.8236924088        3.9512099282
 H       -15.2753203037       -1.5107352831        2.3540086243
 H       -14.8727018729       -0.2350961683        3.5583769981
 H       -13.3349972516       -2.7892257584        1.0715677068
 H       -12.6607690366       -2.9699799919        2.7398543202
 H       -11.6248240973       -2.2019173348        1.5381840887
 H       -14.7586953055        4.5700355231        4.1901140695
 H       -15.9027898799        5.7811255434        3.7830928931
 H       -14.2379327240        5.8354366905        3.0563118580
 H       -17.8428074363        4.3699096192        2.7818971875
 H       -17.5795136691        4.4448041779        1.1268436820
 H       -17.3801704738        5.9287543136        1.8903502172
 Na       -7.6093885553        3.9682342872       -1.5771933383
