117

 C       -15.2520891536        4.4884361238       -0.7072716954
 C       -14.9769873588        5.0400047785        0.7496955144
 O       -14.0814497504        5.8518232961        0.9633118078
 C       -15.8746059993        4.5021175637        1.9650286513
 C       -15.7826500214        2.9455191630        2.2689490218
 O       -16.8238070498        2.3910409678        2.5594094761
 C       -14.4705832778        2.2218264301        2.1375903656
 C       -14.7670271712        0.9382746286        1.2492336621
 C       -13.5309580560       -0.0503196451        1.2872243842
 O       -12.9377811579       -0.1602497678        0.2130632727
 C       -13.1411634998       -0.9607263864        2.5344554261
 C       -12.2392840851       -0.1150731349        3.3486741544
 O       -12.5479878953        0.1261355945        4.5164299058
 C       -10.8615880918        0.3547111405        2.7704588815
 C       -10.1278636211        1.3061338158        3.6602043946
 C        -8.8455846167        1.9868650353        3.1645276055
 O        -7.9130101654        1.3590789903        2.6902058160
 C        -8.6384237980        3.5536394115        3.3591827091
 C        -9.7666679421        4.3572019344        2.6384628095
 O       -10.3951697682        3.7791436293        1.7441116215
 C        -9.8168529818        5.9265907166        2.7394871701
 C       -10.0387497823        6.6554636669        1.3784179172
 C        -9.4436923889        6.0453609019        0.1732369722
 O        -8.3666365375        5.4748222359        0.1658576968
 C       -10.2953511642        6.1676645917       -1.2206590248
 C        -9.2365771996        6.5170601236       -2.3641184193
 O        -8.6791312209        5.6334914826       -3.0258111551
 C        -9.0360937219        7.9850935154       -2.8768907889
 C        -8.2614521783        8.0740099154       -4.2840848324
 C        -6.8982849714        7.3864418783       -4.0180959108
 O        -6.1877121155        7.7944011956       -3.1025127818
 C        -6.3835472444        6.1958815873       -4.8588999486
 C        -6.0185279788        4.9366284740       -3.9327633620
 O        -6.6882940770        3.9176895656       -3.7941488048
 C        -4.6352530307        5.0555164441       -3.2168157276
 C        -4.0870788241        3.6619625415       -2.9037091005
 C        -4.8456492508        2.9904221050       -1.8206513973
 O        -5.4326441307        3.6075882563       -0.9487031471
 C        -4.9131398548        1.4344631943       -1.7806951581
 C        -6.3739133489        0.9092426901       -1.7817040672
 O        -7.3285826673        1.6990586411       -1.7454213285
 C        -6.5924705249       -0.5561390662       -1.8398060453
 C        -4.0716415238        0.8162841120       -2.8556589624
 C        -4.2495566811        1.1455281885       -0.4128045043
 C        -7.3338719061        5.7649049010       -5.9970206635
 C        -5.1281239338        6.7285220655       -5.6162994606
 C       -10.7158958344        4.6946534328       -1.5430156985
 C       -11.4771756559        7.0848760611       -1.1472322836
 C        -8.7263404248        3.8776440216        4.8417139704
 C        -7.2746059279        4.0625408264        2.8321470937
 C       -14.3476486268       -1.3604457266        3.3391756860
 C       -12.3703752109       -2.2060181793        2.0344383278
 C       -15.4079682405        5.2384099768        3.2919665142
 C       -17.3472525228        4.8339628308        1.6351704903
 H       -14.5936466613        4.7993026219       -1.4847926505
 H       -16.3027703003        4.7530411359       -1.0888485911
 H       -15.2517071908        3.3629352672       -0.6620006019
 H       -14.0316775730        1.9659748549        3.0773184597
 H       -13.7548516737        2.8890038128        1.6282855246
 H       -14.9747733537        1.1720830019        0.2283505240
 H       -15.6814220613        0.4476653136        1.6864012686
 H       -10.9898898778        0.8009980256        1.8075697569
 H       -10.3216751715       -0.5769745572        2.7219838756
 H        -9.8382424719        0.7983846467        4.5740111175
 H       -10.7511152774        2.1534490807        4.0106524301
 H        -8.9193443076        6.3243308506        3.1351946209
 H       -10.7311997159        6.2104343976        3.2955940375
 H        -9.6102527346        7.6769417582        1.4741359770
 H       -11.0602658034        6.7426489143        1.1862488972
 H        -8.6146905911        8.5756587649       -2.1192816485
 H       -10.0244020205        8.5622066014       -3.0079401585
 H        -8.0555235078        9.1188427908       -4.4938385662
 H        -8.8023906826        7.5772684749       -5.1595901122
 H        -4.7052712863        5.6481936598       -2.2751904788
 H        -3.9460471491        5.6033258425       -3.8451502283
 H        -2.9826291474        3.7330334853       -2.7715160550
 H        -3.9438713519        3.0955969939       -3.7950772408
 H        -7.2891517555       -0.9051260405       -1.0563428994
 H        -5.6863705814       -1.1437815648       -1.7508778834
 H        -7.2541125036       -0.7870682646       -2.6374658642
 H        -4.4513990929        1.1367822147       -3.7915639396
 H        -4.0733174720       -0.2282071457       -2.8444398668
 H        -3.0158500517        1.1216186758       -2.7393974573
 H        -4.5700461852        1.8642390834        0.4330502828
 H        -3.2072270115        1.1681801151       -0.5438435015
 H        -4.5219833346        0.1183151530       -0.0964774372
 H        -7.5210380592        6.5585597603       -6.7779234924
 H        -8.3596282537        5.5293516927       -5.6068561613
 H        -6.9576366753        4.8318762514       -6.5507551449
 H        -4.5773036022        5.9460907629       -6.2157192228
 H        -4.3411569024        7.1487603775       -5.0165460890
 H        -5.5729414452        7.5361910180       -6.2458511835
 H       -10.6820477807        4.5339947734       -2.5982668334
 H       -11.7762864853        4.4923064911       -1.2420540578
 H       -10.0427549991        4.0093313383       -1.0082997804
 H       -11.9737159584        7.0727388386       -2.0999581195
 H       -11.2301849028        8.0968669122       -0.8241205908
 H       -12.1474434185        6.7113589235       -0.4629420755
 H        -7.8608597157        3.3368291757        5.2702045659
 H        -9.6333082847        3.5055767338        5.3352209521
 H        -8.6912827567        5.0014144082        5.0112625731
 H        -6.5022054528        3.5785682967        3.4739893239
 H        -7.1642215269        5.1580204597        2.9828824187
 H        -7.1139952900        3.7844288527        1.7674036112
 H       -13.9893934343       -2.1030235085        3.9946751940
 H       -15.0349287398       -1.9401951416        2.6431410668
 H       -14.8570709216       -0.5379628133        3.7995884022
 H       -13.0887898544       -3.0180205740        1.8975866542
 H       -11.6982565561       -2.5750864230        2.8538884144
 H       -11.8548782352       -1.9112377666        1.0925567649
 H       -14.3153690106        5.2571943278        3.1588613594
 H       -15.8055690827        4.7394122312        4.1375535514
 H       -15.8040880633        6.2074064434        3.2795858391
 H       -18.0826032219        4.4929193910        2.4106131199
 H       -17.7195987964        4.3782303664        0.6449890053
 H       -17.6131807879        5.8667515344        1.6414839196
 Na       -7.7234832339        4.0582511479       -1.6334267316
