117

 C       -15.5198875618        4.3643689466       -0.4499851974
 C       -14.8021296526        4.7641583748        0.8686539879
 O       -13.6049737564        5.1102979564        0.8743408593
 C       -15.6326675527        4.3781479674        2.1888380536
 C       -15.6446255912        2.8098755773        2.3066502920
 O       -16.6211271594        2.1741701868        2.7213019467
 C       -14.2580230898        2.1347214182        2.0091491227
 C       -14.5611020352        0.9607571290        1.0116396073
 C       -13.4680246805       -0.0952063872        0.9839772760
 O       -12.6708167486       -0.1374986663        0.0255698296
 C       -13.3915292524       -1.0160450807        2.1658779039
 C       -12.3313247755       -0.3669939788        3.2648684013
 O       -12.5604625026       -0.3849307673        4.4724866572
 C       -10.9687814125        0.0643391797        2.7464444683
 C       -10.2924228473        1.1816547321        3.6465312156
 C        -8.8868141510        1.6363763851        3.1597783828
 O        -8.2372246099        1.0632469458        2.2920685909
 C        -8.4793558724        3.1656838715        3.4957106635
 C        -9.4821280592        4.0054573762        2.5095566452
 O       -10.1832614697        3.4352350068        1.6806856913
 C        -9.5607888469        5.5614836325        2.6003895750
 C       -10.1532128642        6.1399532899        1.3534556432
 C        -9.5133972635        5.8371170538        0.0116752914
 O        -8.4828106394        5.2636334971        0.0136146812
 C       -10.4015063880        6.3919880495       -1.3052103291
 C        -9.5128179505        6.5821040215       -2.5134348399
 O        -8.8148322820        5.6478058498       -2.9365386086
 C        -9.4589687487        7.9486114813       -3.1608824758
 C        -8.5291937200        7.9260389215       -4.3855191141
 C        -7.0221380245        7.5993547075       -4.0282387270
 O        -6.5376908153        8.2864490858       -3.1552604326
 C        -6.2622742877        6.4162789292       -4.8210783227
 C        -5.7334232325        5.2735749033       -3.8393941509
 O        -6.3222815820        4.2260157752       -3.8096202833
 C        -4.5515529236        5.6036206876       -2.8494178124
 C        -3.8554401153        4.3015978220       -2.3287446999
 C        -4.9203050632        3.5115210608       -1.5310178131
 O        -5.6830334499        3.9797217865       -0.7140950470
 C        -5.0282573240        1.9986982177       -1.7457421755
 C        -6.4466340101        1.2692763668       -1.5992618630
 O        -7.5007269434        1.8804633176       -1.7587087380
 C        -6.4712550791       -0.2146533856       -1.4106800992
 C        -4.5995827706        1.4626262546       -3.1200032042
 C        -4.0873181182        1.2870240758       -0.6419556177
 C        -6.9688162423        5.7521133443       -6.0505824877
 C        -5.0927415457        7.1280995966       -5.5057412005
 C       -11.3691835086        5.2051170991       -1.8802392307
 C       -11.3124986594        7.5719886410       -0.8418155956
 C        -8.7553131842        3.3710632784        5.0376392909
 C        -6.9871380496        3.5663537340        3.1550371313
 C       -14.6963460846       -1.3490193674        2.9513297903
 C       -12.8071476364       -2.3545122641        1.6625982319
 C       -14.8268642396        4.8418882810        3.4497030093
 C       -17.0152923720        4.9464726230        2.1666385360
 H       -14.9806932123        3.8420608342       -1.2214192400
 H       -15.9459089864        5.3190131758       -0.8884521824
 H       -16.3225673399        3.6541986563       -0.2477839829
 H       -13.8486162696        1.8120585985        2.9672278734
 H       -13.5291978434        2.8802830331        1.5999996783
 H       -14.7329268034        1.4521398087        0.0433663563
 H       -15.4750509114        0.4579247770        1.3167698014
 H       -11.0608984192        0.2996216852        1.6267710552
 H       -10.4421722991       -0.9151305350        2.7674855822
 H       -10.1952261415        0.9218500660        4.6954364563
 H       -10.8650631930        2.1348798900        3.5984646183
 H        -8.5362561420        5.9645057504        2.7781202266
 H       -10.1170544612        5.9359877297        3.5563652600
 H       -10.1025760432        7.2775114623        1.3533577011
 H       -11.2353216617        5.9819520381        1.2897374019
 H        -9.1406467977        8.6175493454       -2.3729724484
 H       -10.4754396995        8.2438339586       -3.5316780020
 H        -8.4534264820        8.8351797432       -4.9130426042
 H        -8.9233849175        7.2030715816       -5.1528638791
 H        -5.0072213051        6.0759066737       -1.9295956734
 H        -3.8376685989        6.2450970573       -3.2825238061
 H        -3.0278557281        4.7148993501       -1.7492847023
 H        -3.5101002871        3.7433313160       -3.2234777880
 H        -7.2396002249       -0.6184471245       -2.1350541868
 H        -6.8062943769       -0.3780187311       -0.3675748279
 H        -5.5312038272       -0.7308935400       -1.4865733533
 H        -5.1094055792        2.0908638605       -3.8879529340
 H        -4.8885820903        0.4150582172       -3.3546167373
 H        -3.4852704384        1.6484743368       -3.3916377537
 H        -4.1378777387        1.8433647677        0.3011437764
 H        -3.1321486589        1.3913349959       -0.9721232662
 H        -4.2427226890        0.2016068927       -0.4504780675
 H        -7.4090388130        6.5621736106       -6.6338362563
 H        -7.7373507954        5.0641576085       -5.7201758944
 H        -6.2055069850        5.2390362130       -6.6373292782
 H        -4.4475730266        6.2993764599       -5.9086841962
 H        -4.5088581855        7.8178436459       -4.9615827745
 H        -5.3619978524        7.6280571265       -6.4424385180
 H       -11.8616727996        5.4717446681       -2.7819329022
 H       -12.0269680033        4.7977322464       -1.0885253412
 H       -10.6740233821        4.3980168293       -2.1048038646
 H       -11.8550374326        8.1356113282       -1.6153982665
 H       -10.7971673781        8.3954255763       -0.2887801765
 H       -12.0141859630        7.1067296367       -0.2397750927
 H        -8.0643959754        2.7523733063        5.5495907659
 H        -9.7379043046        3.0828823921        5.1968370115
 H        -8.5168190180        4.4152787215        5.3248266974
 H        -6.3277424407        3.0467210815        3.8599943744
 H        -6.8961774683        4.6192271700        3.2272995210
 H        -6.7396368917        3.2779552660        2.1459647093
 H       -14.4000215193       -1.9193328171        3.7925445445
 H       -15.2941474559       -1.9864695915        2.2291120806
 H       -15.2510466751       -0.5596312151        3.4307895188
 H       -13.6070573352       -2.8281307643        1.1319876079
 H       -12.3625584736       -3.0084356804        2.4318239264
 H       -12.0403440841       -2.1344350473        0.9075068861
 H       -14.8520707243        4.0579033454        4.2891291370
 H       -15.3390788183        5.6740513355        3.9277815914
 H       -13.8379830626        5.0918222663        3.0572420014
 H       -17.5947852911        4.6121896867        2.9880441876
 H       -17.6888912457        4.8980454517        1.3255300795
 H       -16.9211744250        5.9649416703        2.2536500913
 Na       -7.7754169270        4.0863004562       -1.6277476278
