117

 C       -15.4103769210        4.3508990618       -0.4491618986
 C       -14.8307206729        4.8302110841        0.8302628614
 O       -13.7904462912        5.4873600881        0.9561888307
 C       -15.7575609667        4.4738289493        2.1205481884
 C       -15.7060907071        2.8606498715        2.3648103939
 O       -16.7358824263        2.2956638637        2.7365631732
 C       -14.3947348507        2.1391064070        1.9417246098
 C       -14.6742851046        0.8587096814        1.0533529012
 C       -13.4339162256       -0.0841530314        1.0399225035
 O       -12.6277759309       -0.0998500968        0.0958027112
 C       -13.2685807836       -0.9569018599        2.3115145378
 C       -12.2523949412       -0.2293473358        3.1792007731
 O       -12.3829543548       -0.1931818775        4.3891387811
 C       -10.8895775171        0.2831142457        2.5925135203
 C       -10.2234265249        1.0844670922        3.6148108307
 C        -8.8942996051        1.7277657967        3.1749986088
 O        -8.0753164739        1.0625223870        2.5629397828
 C        -8.6269912681        3.2599429509        3.4126266304
 C        -9.5869536155        4.1420368815        2.4326936753
 O       -10.3919775893        3.6614193771        1.6860630118
 C        -9.4951183216        5.6729516465        2.6065618766
 C       -10.2972221229        6.3304676151        1.4666831391
 C        -9.6130015949        6.1234820431        0.1466433841
 O        -8.5419252220        5.5811531287        0.1742814060
 C       -10.3556775797        6.2597823357       -1.2390777074
 C        -9.3211358001        6.4680438887       -2.3543143084
 O        -8.5297351365        5.6293088084       -2.6681119936
 C        -9.0994896912        7.8765685711       -2.9166247486
 C        -8.3878022739        7.9412110427       -4.2830269678
 C        -6.9018057186        7.4759137552       -4.1095666687
 O        -6.2173458540        8.0167733591       -3.3133939864
 C        -6.2288761275        6.3728484162       -5.0562279289
 C        -5.7565423592        5.2242888872       -4.0645974223
 O        -6.3480559702        4.1723622323       -3.9837213998
 C        -4.6739071045        5.4681417936       -2.9646895879
 C        -4.0459593461        4.1759655345       -2.4651634226
 C        -4.9737578591        3.2915102508       -1.6373178768
 O        -5.6381978577        3.8060156620       -0.7551556059
 C        -5.0389846707        1.7143949098       -1.7604232625
 C        -6.4670909900        1.1032214296       -1.6934086079
 O        -7.4996143089        1.7471598276       -1.8246149380
 C        -6.6043144575       -0.3979081130       -1.5239873559
 C        -4.3864288687        1.1758746566       -3.0971735523
 C        -4.2587423684        1.2687436929       -0.4838380972
 C        -7.1705798119        5.7834609655       -6.2008709270
 C        -5.0457208556        7.0515115487       -5.7440213650
 C       -11.0672755405        4.8466435019       -1.3664162388
 C       -11.4540644970        7.3678950022       -1.2063805641
 C        -9.0220076402        3.7572381162        4.9072097257
 C        -7.0829082901        3.5575292193        3.0594051614
 C       -14.5739081098       -1.2089472734        3.2711930025
 C       -12.6308218640       -2.3774593346        1.9656652891
 C       -15.1897079432        5.1984642878        3.3890838354
 C       -17.2357136161        4.7969940655        1.9712177341
 H       -14.8280151365        4.5406108110       -1.3363530729
 H       -16.3560581786        4.8444023624       -0.6208340268
 H       -15.5191060418        3.3238478040       -0.4212497838
 H       -13.8478643316        1.7514969353        2.8090007254
 H       -13.6908480945        2.8771913974        1.5027005014
 H       -14.9163499998        1.1213379083        0.0462185773
 H       -15.5637430889        0.2802301893        1.4684312585
 H       -11.0193245664        0.8590521733        1.6941933641
 H       -10.2787916148       -0.6437645851        2.4075347357
 H       -10.0660083649        0.5048898473        4.4981569625
 H       -10.8558912138        1.9028257010        3.9464886857
 H        -8.3993931868        5.9623269321        2.5296012143
 H        -9.9213671996        6.0343463937        3.5637096177
 H       -10.4408681842        7.4040470795        1.6302258544
 H       -11.2707973175        5.9360485657        1.4247171106
 H        -8.4049198981        8.3365089803       -2.2642079019
 H       -10.0351823305        8.5483119047       -2.8836268681
 H        -8.2165063164        8.9859011539       -4.5503796202
 H        -8.8399565718        7.4073842372       -5.1619324274
 H        -5.1778286211        5.9717761875       -2.1770867182
 H        -3.9036648455        6.1264237869       -3.3637847355
 H        -3.1230326061        4.4130786359       -1.8250114830
 H        -3.5603850729        3.7633597205       -3.3185981316
 H        -7.6626788435       -0.7732247002       -1.6071916452
 H        -6.0557138997       -0.7167798219       -0.6793563180
 H        -6.1842279915       -0.9075453920       -2.3906530545
 H        -4.8314015248        1.5040704589       -3.9977697709
 H        -4.3929456465        0.1381529044       -3.0598924851
 H        -3.3445575153        1.5439060096       -3.1554183756
 H        -4.9561231526        1.2854725242        0.3647057639
 H        -3.4942340426        1.9857668629       -0.2374945896
 H        -3.8704479094        0.1769813198       -0.5830420224
 H        -7.5436421815        6.5379836513       -6.9460819116
 H        -8.0356525331        5.3264675019       -5.7188725946
 H        -6.4991940463        5.0929503388       -6.7632601755
 H        -4.4006406145        6.2767257631       -6.1775614328
 H        -4.4208169569        7.6640487070       -5.1739480470
 H        -5.4328275295        7.5845098652       -6.6383718592
 H       -11.7646590283        4.8878169861       -2.2027428797
 H       -11.4865085597        4.4957013210       -0.4050284064
 H       -10.2800142657        4.1170523325       -1.5461928536
 H       -12.0652398067        7.3015391155       -2.1316785782
 H       -11.1072118982        8.4094289923       -1.0341681253
 H       -12.1114289586        7.1921512231       -0.3563040952
 H        -8.6495979624        3.0567998996        5.6981534082
 H       -10.0955793886        3.8832984210        4.8816586724
 H        -8.5708108561        4.7412123349        5.0181820633
 H        -6.4213483196        2.8616393048        3.5322459032
 H        -6.8849090971        4.6106888083        3.3729645277
 H        -6.9801489973        3.5913483496        1.9693972257
 H       -14.2518946368       -1.9033215865        4.0109119977
 H       -15.4350947497       -1.6161723718        2.6960033175
 H       -14.7945034016       -0.3584719242        3.8687266333
 H       -13.2523950297       -2.8882968163        1.2144656066
 H       -12.5677413858       -3.0337498083        2.8350492733
 H       -11.6165736158       -2.1867551304        1.6294104275
 H       -14.7484723756        4.4573216417        4.0308584984
 H       -15.9548320969        5.7892733436        3.9313215804
 H       -14.4238526679        5.8167607457        2.9625892316
 H       -17.8428590253        4.4458559425        2.8444264550
 H       -17.7067147551        4.1979953557        1.1829531003
 H       -17.5859882971        5.8002607530        1.6872010903
 Na       -7.6769017711        3.9993418972       -1.6337263034
