117

 C       -15.2814308529        4.3691732665       -0.5672211481
 C       -14.9615304075        4.9610484697        0.7627962592
 O       -14.0398769316        5.7719164056        0.8480247510
 C       -15.9202532310        4.6501304494        1.9050575023
 C       -15.9490704685        2.9967355043        2.1081493893
 O       -17.0083295286        2.4279533647        2.2837786235
 C       -14.5994578995        2.3016199361        1.9340327535
 C       -14.7598858128        0.8289073392        1.4597328428
 C       -13.4962828717        0.0197920326        1.3601389607
 O       -12.8483325614       -0.0464511389        0.2989630026
 C       -12.9685628287       -0.8307609315        2.5370499873
 C       -12.1287833609        0.1684166194        3.4961039268
 O       -12.6277117583        0.5735648186        4.5553756391
 C       -10.7792616235        0.5042028863        2.9623561778
 C       -10.1977732150        1.7148401231        3.8018884619
 C        -8.9395260111        2.2226163569        3.1346114009
 O        -8.2098793827        1.4377350041        2.5357311396
 C        -8.5480379982        3.7466905324        3.3152528284
 C        -9.6021510928        4.5233069354        2.4811680579
 O       -10.5178051441        3.9502326606        1.9239355589
 C        -9.5170796422        6.0754897781        2.4996244544
 C       -10.2407544109        6.5915842151        1.2897882438
 C        -9.6244245331        5.9279735705        0.0406963697
 O        -8.5432487101        5.3486634954       -0.0008015306
 C       -10.4130253431        6.0542248195       -1.3058850478
 C        -9.3821057774        6.3793170535       -2.4007120504
 O        -8.5698402124        5.5371406221       -2.6976229429
 C        -9.1811262276        7.8573309436       -2.9260056822
 C        -8.2013406503        8.0553972298       -4.1151159370
 C        -6.8732095807        7.2661743274       -3.8115189361
 O        -6.1970509222        7.4761836339       -2.8514454965
 C        -6.3600096858        6.1860885576       -4.8962362239
 C        -5.8396186924        4.9665570712       -4.0495729189
 O        -6.5902659081        3.9999874653       -3.9409146417
 C        -4.4523474817        4.9072679075       -3.4187926412
 C        -4.0892975410        3.4319537931       -3.1559903459
 C        -4.7587010877        2.8057699046       -1.9315375513
 O        -5.2169659090        3.5398463413       -1.0329229457
 C        -4.8199469527        1.2833807391       -1.6954869951
 C        -6.3870283066        0.7680798457       -1.7744963842
 O        -7.3092430660        1.5482433402       -1.5899756049
 C        -6.7537605421       -0.7025847157       -1.9265324117
 C        -3.9136776234        0.4065070164       -2.7080359044
 C        -4.4891536270        0.9105495363       -0.2144671978
 C        -7.5859519993        5.7186233359       -5.7003318095
 C        -5.3678189280        6.9308903704       -5.7971915565
 C       -10.9608992697        4.6717005396       -1.4633352392
 C       -11.5671351898        7.0831867410       -1.1285483512
 C        -8.6050656064        4.2235340649        4.8383464395
 C        -7.0825348333        3.8999638980        2.7123428463
 C       -14.0809812797       -1.3434386715        3.3868987946
 C       -12.2192324831       -2.0389016567        1.9667349130
 C       -15.4886320707        5.3301583404        3.2678892943
 C       -17.3132516873        5.0654795367        1.5256973449
 H       -14.3844614306        4.2936483872       -1.1480341949
 H       -16.0216378144        4.9966285034       -1.1671140820
 H       -15.8050632914        3.4295016926       -0.4889220471
 H       -14.0924741357        2.4530809803        2.9179361274
 H       -13.9842750249        2.8131002484        1.2022367388
 H       -15.1750611525        0.7960497763        0.4828397455
 H       -15.5531832069        0.4037099085        2.1435121380
 H       -10.9621129494        0.8430744003        1.9775817618
 H       -10.1538612753       -0.4338975200        2.9570796401
 H        -9.8969653669        1.4297300227        4.8523317552
 H       -10.8470913301        2.6055046109        3.8520310350
 H        -8.4808410706        6.4024641246        2.4038493605
 H       -10.0288360567        6.4390649843        3.3123039785
 H       -10.1014957328        7.6973408331        1.1069169086
 H       -11.2968474327        6.2621583192        1.3906322977
 H        -8.7782202429        8.4035132226       -2.0924884306
 H       -10.1300174072        8.4412616387       -3.0126934941
 H        -7.9244070836        9.0699919419       -4.2930985703
 H        -8.5400891296        7.6592172097       -5.0603987786
 H        -4.5707317087        5.4399698123       -2.4466604067
 H        -3.6743657782        5.5406666319       -3.9726176953
 H        -2.9652572021        3.3260777991       -3.1270475308
 H        -4.1690075972        2.9149994178       -4.0528236388
 H        -7.1416603343       -1.2031056013       -0.9855761434
 H        -5.8991580881       -1.3094518507       -2.1037893918
 H        -7.5717545370       -0.8801956170       -2.6228658937
 H        -4.4936071736        0.0219250039       -3.5719091279
 H        -3.3496462676       -0.3846527996       -2.2104414522
 H        -3.0082103380        1.0797247001       -2.9492201166
 H        -5.2651824311        1.4680876290        0.3117641267
 H        -3.5762355354        1.2090883528        0.0945101749
 H        -4.5770385970       -0.1594842470        0.0174953569
 H        -8.0846548725        6.4389064493       -6.2967076690
 H        -8.2337190015        5.1754300289       -5.0759859113
 H        -7.3326604525        4.9230096412       -6.4150812370
 H        -4.8236870511        6.1587855536       -6.3195999387
 H        -4.7047073953        7.5930795731       -5.3454609465
 H        -5.9077471853        7.5350593387       -6.5536369244
 H       -11.9622779859        4.5879820657       -1.8864137558
 H       -11.0315665771        4.2311674630       -0.4615943792
 H       -10.2192666716        4.1700201121       -2.0439126632
 H       -12.1464887107        7.4185624577       -2.0229756020
 H       -11.1934112885        7.9947215291       -0.6107818323
 H       -12.2855768894        6.5913595891       -0.4396891930
 H        -7.9492791686        3.6252070567        5.4896723419
 H        -9.5896216603        4.1406060332        5.2476396244
 H        -8.3443272493        5.2422405883        4.8757915201
 H        -6.3980013740        3.2384642496        3.1158705745
 H        -6.7303292431        4.9071057893        2.9330600703
 H        -7.1119365922        3.7231400637        1.6619932711
 H       -13.6605177477       -2.0344960187        4.0971577857
 H       -14.8272701959       -1.8787590523        2.7346933105
 H       -14.5815756873       -0.4875266894        3.7778238932
 H       -12.8085924448       -2.4439935168        1.1399979897
 H       -12.0898521409       -2.7431378643        2.7426349597
 H       -11.3134565962       -1.6850839883        1.5586987967
 H       -14.4550737484        5.6249116093        3.1845946413
 H       -15.7638790675        4.5355623976        4.0068177790
 H       -16.1651651338        6.2004519309        3.4009000874
 H       -18.0517800647        4.9957197420        2.2746616147
 H       -17.6563217963        4.5594575090        0.6582824260
 H       -17.3970575394        6.0997756103        1.3440448116
 Na       -7.4104798324        3.8605873844       -1.5085420744
