117

 C       -15.3134993216        4.3723599057       -0.6746225804
 C       -14.9605241511        5.0212490142        0.6615832880
 O       -13.9221929992        5.6116613038        0.8684967420
 C       -15.9461291326        4.6555989114        1.7965644139
 C       -15.9873471305        3.1085260848        1.9457614180
 O       -17.0173925837        2.4637823245        2.1131685024
 C       -14.6202311497        2.3254805820        2.0127501542
 C       -14.8527032098        0.8476547203        1.5406118535
 C       -13.5235893822        0.0467328723        1.4541736624
 O       -12.7895747566        0.2607821513        0.5159159746
 C       -13.0003461664       -0.7354477524        2.6218574481
 C       -12.2375455140        0.2734283744        3.4794811837
 O       -12.7670907837        0.8051007795        4.4153589491
 C       -10.7505260323        0.6431252955        3.1247549614
 C       -10.2140639099        1.8205635255        3.8337711500
 C        -8.8423164849        2.2692216999        3.1698596752
 O        -8.2758913577        1.4637920698        2.4677935451
 C        -8.4394246500        3.7871869366        3.3276134648
 C        -9.4713318227        4.6291401573        2.5363468162
 O       -10.4797968176        4.1336998405        2.1166614373
 C        -9.2434347412        6.1963438261        2.4295230646
 C       -10.1855457312        6.6858788945        1.3091908740
 C        -9.7788688208        5.8597797978        0.0154487388
 O        -8.6974977610        5.3337701287        0.0190955187
 C       -10.5781520838        5.9946132994       -1.3400299806
 C        -9.4677566173        6.4327976651       -2.3658585779
 O        -8.6127080864        5.5970686253       -2.6815970851
 C        -9.3220921509        7.8406716568       -2.8494469562
 C        -8.2465439836        7.9731559679       -3.8824005265
 C        -6.8726364872        7.0648004330       -3.6790353998
 O        -6.1094685158        7.1649241300       -2.7500476603
 C        -6.4137466126        6.0960281725       -4.8536986076
 C        -5.8243860918        4.8043269439       -4.1531488226
 O        -6.6058811002        3.8964847624       -3.9814298167
 C        -4.3748892380        4.6787917264       -3.6250776156
 C        -4.0613055446        3.2223838203       -3.2300329002
 C        -4.7763307801        2.7483231132       -1.9448584962
 O        -5.0912818631        3.4990060207       -1.0433263471
 C        -4.9074897393        1.2075345306       -1.6372476675
 C        -6.4130626774        0.7419598448       -1.7646675018
 O        -7.2855566956        1.5802658853       -1.6699455409
 C        -6.6570534738       -0.7347406386       -1.9917224812
 C        -3.9190584732        0.3855119884       -2.5373985302
 C        -4.4951038021        0.9452882795       -0.1517451168
 C        -7.5314987087        5.5708667847       -5.7729199096
 C        -5.3954384280        6.8831007208       -5.7683908813
 C       -11.2006286979        4.6344781612       -1.7456605794
 C       -11.7879298053        7.0027839510       -1.2678065435
 C        -8.4104257440        4.2265760703        4.7974638145
 C        -6.9912529478        3.9242454838        2.7192361237
 C       -14.0651049144       -1.4802831602        3.4826169444
 C       -12.0235634183       -1.8198193855        2.0888261281
 C       -15.4461316502        5.1504215303        3.1569722129
 C       -17.3500203217        5.2420533667        1.4987955019
 H       -14.4227435266        3.8743153080       -1.2139466387
 H       -15.7552153170        5.0400631306       -1.3927965885
 H       -16.1491255609        3.6641459278       -0.5392570031
 H       -14.1113616841        2.4254522192        2.9551546661
 H       -13.9806951212        2.7450543849        1.2293141037
 H       -15.2860159143        0.8096166132        0.5068558488
 H       -15.6057051922        0.4648675998        2.1671742353
 H       -10.6802741942        0.8716898626        2.0340335504
 H       -10.1342711380       -0.1974910086        3.2882452307
 H       -10.0606429339        1.6142466011        4.8851292399
 H       -10.8949216425        2.6681665178        3.7203417173
 H        -8.1989179708        6.4111344529        2.1021426794
 H        -9.4636057707        6.7318691366        3.3992765256
 H       -10.0124283802        7.6792912438        0.9798077057
 H       -11.1999987215        6.4759781003        1.5996097567
 H        -9.1919376112        8.5396230803       -1.9816687555
 H       -10.2743606510        8.1945041396       -3.1826916572
 H        -7.7785877441        8.9946927808       -3.9599881059
 H        -8.6112484334        7.7799886926       -4.8877402039
 H        -4.1338090960        5.2939249975       -2.7466759889
 H        -3.7660253034        5.0551670118       -4.4167035739
 H        -2.9944009187        3.1399766268       -3.1185915284
 H        -4.1969171572        2.5706340354       -4.1900587401
 H        -6.9610107377       -1.2896952698       -1.1468866958
 H        -5.8233173772       -1.3708988967       -2.3205174440
 H        -7.4925709107       -0.8403417590       -2.7166739461
 H        -4.2061377108        0.6220248635       -3.5522448849
 H        -4.1268158669       -0.6937829491       -2.4444641766
 H        -2.9155566067        0.5006884582       -2.2750185818
 H        -5.2277879833        1.3380280412        0.4990228888
 H        -3.4420507979        1.3868744608        0.0797115007
 H        -4.3645628030       -0.1241183432       -0.0097570915
 H        -7.7671236339        6.3510499811       -6.5529227927
 H        -8.4711092345        5.1296353231       -5.3135599309
 H        -7.2693428997        4.6862891846       -6.3759533421
 H        -5.3005334670        6.4151520602       -6.7648163312
 H        -4.3973949204        7.0681021397       -5.2247368668
 H        -5.6642414247        7.9226597408       -5.9312932272
 H       -12.1822417721        4.8083553501       -2.1836868067
 H       -11.3726400149        4.0012012848       -0.9067491443
 H       -10.5471759692        4.2286060772       -2.5250079373
 H       -12.1931596329        6.9627079126       -2.2417558712
 H       -11.4884231113        8.0106864884       -1.2035475739
 H       -12.5734570826        6.7580087558       -0.5617053726
 H        -7.8650256457        3.5635739671        5.4770799636
 H        -9.4659089337        4.2207651418        5.1887139257
 H        -7.9926989849        5.2625689581        4.9186994615
 H        -6.2296494405        3.3722165819        3.3253192499
 H        -6.6922425024        4.9648734907        2.7145377629
 H        -6.9095083169        3.4916439247        1.7110333657
 H       -13.4540806806       -2.0469394850        4.2243379106
 H       -14.6710294170       -2.1153660098        2.8960516149
 H       -14.7095570883       -0.7013579234        3.9634071692
 H       -12.6093115280       -2.4768195494        1.4636772927
 H       -11.6427788264       -2.2614579176        3.0199792466
 H       -11.2252227020       -1.3546027171        1.4951376642
 H       -14.4685540317        4.7223939828        3.2515632594
 H       -16.1417165427        4.7720236859        3.8616757518
 H       -15.3810401653        6.2160068539        3.0464986855
 H       -17.9901541030        5.1408106736        2.3922131026
 H       -17.8960479404        4.7721418378        0.6866169962
 H       -17.4426659128        6.3744845790        1.2973475725
 Na       -7.4006678347        3.9088544323       -1.4449574043
