117

 C       -15.4926580121        4.6103248357       -0.9206279673
 C       -14.8905437883        5.0247605260        0.4329462306
 O       -13.7471830310        5.4097932315        0.6422439833
 C       -15.8382925093        4.7289951785        1.6255069200
 C       -16.0598561396        3.0553649556        1.7256451946
 O       -17.1881223482        2.6187832293        1.5223794556
 C       -14.8746053538        2.2327704275        2.2468055724
 C       -14.8779941525        0.7782382131        1.6434987639
 C       -13.4797440258        0.2308861441        1.6271688144
 O       -12.7706325144        0.6225536709        0.6981470868
 C       -12.9196406413       -0.6831469681        2.7749328935
 C       -12.1810304955        0.4843869621        3.6025652816
 O       -12.7922333064        1.2687545423        4.3394964767
 C       -10.6722412595        0.7077154184        3.3858054514
 C       -10.0845418914        1.9646184451        4.0816028533
 C        -8.7924360781        2.3889505758        3.3248627188
 O        -8.1880984027        1.6199003780        2.5763289613
 C        -8.3745299420        3.9123955309        3.3380826291
 C        -9.5251970410        4.8210247746        2.7312174294
 O       -10.5809697166        4.3167337769        2.5469665962
 C        -9.1084021101        6.2420744121        2.3605725376
 C        -9.9119880548        6.6446282314        1.1316814974
 C        -9.6470443797        5.7024149539       -0.0793602513
 O        -8.8102507255        4.8418986802        0.0772144548
 C       -10.5400297975        5.8704804023       -1.3671432242
 C        -9.4795519710        6.2979113841       -2.5109414821
 O        -8.9614975497        5.4802261948       -3.2872943302
 C        -9.1815455026        7.7937453443       -2.7324641613
 C        -8.0401530571        7.8809106989       -3.8024926405
 C        -7.0079337219        6.7254092481       -3.4936211160
 O        -6.6190295710        6.5189315753       -2.3930110268
 C        -6.4226988237        5.8377080991       -4.7906591071
 C        -5.9345647550        4.4961998909       -4.1356184383
 O        -6.7385578266        3.6093851366       -3.9628039461
 C        -4.4142153005        4.3500473197       -3.8982043476
 C        -4.0055318122        2.9780317898       -3.3633208058
 C        -4.6444805975        2.7378063895       -2.0308127674
 O        -5.2502454164        3.5845964523       -1.3620673951
 C        -4.8043168965        1.2563795066       -1.5209960813
 C        -6.4201763426        0.8342396993       -1.8328774137
 O        -7.3228968341        1.6663968003       -1.7736680462
 C        -6.7125995040       -0.6408992312       -2.0312426176
 C        -3.9283271052        0.2459212119       -2.2420758827
 C        -4.7361691678        1.2475665728        0.0262445827
 C        -7.5287839042        5.4090500286       -5.7783301223
 C        -5.2734364084        6.6649956109       -5.4796677454
 C       -11.2066730806        4.5424712005       -1.7980050342
 C       -11.4735850241        7.0971853752       -1.2548095214
 C        -8.2189438002        4.3313265451        4.8467451915
 C        -7.0714967070        4.1907155852        2.6462872071
 C       -13.9347770524       -1.3232044302        3.7921691760
 C       -11.9713186224       -1.7070552926        2.1483285216
 C       -15.1442910888        5.1095224370        3.0535080677
 C       -17.1837244841        5.5019946636        1.4829809822
 H       -14.7807007769        4.0203910103       -1.6323510536
 H       -15.9435998301        5.4119246894       -1.5568564609
 H       -16.3056485001        3.8853119845       -0.7123405277
 H       -14.9152671715        2.0767336950        3.3227875799
 H       -13.9458284172        2.7425695415        2.0272625703
 H       -15.2959385737        0.7711004731        0.6034672109
 H       -15.5420958002        0.1718369053        2.1816920578
 H       -10.5323671519        0.6368757175        2.3094208585
 H       -10.2325820693       -0.1648841409        3.7373025510
 H        -9.8506513317        1.7181627838        5.1455307471
 H       -10.8529951830        2.7565325135        4.0160721986
 H        -7.9926539457        6.4070399751        2.2479029362
 H        -9.2848035362        6.9648242069        3.1216813356
 H        -9.7145440064        7.6896809284        0.9460509759
 H       -10.9835132776        6.4816124963        1.3727369426
 H        -8.8797083596        8.3563256194       -1.7905642374
 H       -10.0355123865        8.2967021716       -3.1266084958
 H        -7.5417388899        8.8977112633       -3.6584952673
 H        -8.3395070756        7.8222051361       -4.8223692052
 H        -4.0197065652        5.1874525783       -3.2731057158
 H        -4.0013687593        4.4728017014       -4.9318184418
 H        -2.9436075579        2.9255897049       -3.4078081452
 H        -4.5245884501        2.3329259768       -4.1879192596
 H        -6.1815109622       -1.2826974762       -1.3425524626
 H        -6.4521225101       -1.0166964992       -3.0080887873
 H        -7.8058628639       -0.9246500724       -2.0351638732
 H        -4.3354483616       -0.0508214340       -3.2571675294
 H        -3.9409822763       -0.6524830672       -1.5583093085
 H        -2.9560534307        0.6907273195       -2.4609072637
 H        -5.2094902287        2.0723184296        0.4176895189
 H        -3.6734289440        1.3475396665        0.2946706111
 H        -5.1721222018        0.3243896470        0.4388633772
 H        -7.9863556542        6.2130468799       -6.3741698804
 H        -8.3638343691        4.8448996064       -5.3510419910
 H        -7.2135237270        4.6841022419       -6.5241814284
 H        -4.6050151387        6.0652092972       -6.0531327131
 H        -4.7366988545        7.2589745090       -4.6869226638
 H        -5.6164065272        7.3506762257       -6.2347571919
 H       -11.1478944813        4.3855187882       -2.8946786774
 H       -12.2205871582        4.7105505225       -1.5347308487
 H       -10.8196099982        3.7085269492       -1.2375062106
 H       -12.1046099907        7.2728406873       -2.1294612940
 H       -10.8369679553        7.9517389363       -1.1231281990
 H       -12.1444765233        7.0049715787       -0.3222886038
 H        -7.4167390433        3.7769526590        5.3111601445
 H        -9.0807203965        4.2472263754        5.5084154239
 H        -7.8278835397        5.2998349866        4.9533733022
 H        -6.4403046940        3.3550053167        2.7990749086
 H        -6.5675410326        5.0330983335        3.0746907546
 H        -7.1269638079        4.3665669631        1.5982796031
 H       -13.3766016144       -2.0160216430        4.4921056181
 H       -14.6961807232       -1.8101058272        3.2546537409
 H       -14.2750986767       -0.5297501492        4.4979002463
 H       -12.6059950158       -2.2566149541        1.4726147037
 H       -11.6058483766       -2.3254181073        2.9286644230
 H       -11.1961201719       -1.2188759089        1.6202163510
 H       -14.2996049669        4.5543335469        3.2697085806
 H       -15.9690470939        4.9091092331        3.7757193641
 H       -14.9286857489        6.1724800862        2.8483627066
 H       -17.9689696924        5.1436189618        2.1045972106
 H       -17.5797973724        5.3667712918        0.5463408023
 H       -17.0788080087        6.6278871903        1.5237156515
 Na       -7.6228929668        3.9853296590       -1.7144084954
