117

 C       -15.4005786536        4.6318987974       -0.8127408192
 C       -14.8965626301        4.8944138435        0.5732404407
 O       -13.8395895506        5.4937894160        0.6984091618
 C       -15.8753738072        4.6277223704        1.7175897703
 C       -16.0724785597        3.0893275383        1.8378106272
 O       -17.1880604766        2.5928093885        1.6876630448
 C       -14.8656888825        2.2884183230        2.1488658013
 C       -15.0311863557        0.7289300194        1.6382493922
 C       -13.5273405331        0.1941145762        1.6123396728
 O       -12.7166093248        0.5302746711        0.7920558720
 C       -12.9160915762       -0.6660997289        2.7532563170
 C       -12.2021209696        0.4968493151        3.5542723482
 O       -12.9022969032        1.1133270245        4.2926796857
 C       -10.6729693453        0.6815836180        3.3193110346
 C       -10.0490488996        1.9912109408        4.0230836726
 C        -8.8581031528        2.3901773227        3.2037719184
 O        -8.2076854242        1.6025233709        2.5822765701
 C        -8.2977934494        3.8859842625        3.3722890528
 C        -9.4609241239        4.7565272326        2.6885707754
 O       -10.5605235025        4.3174473317        2.3513590527
 C        -9.1992833476        6.2368579979        2.3632944628
 C       -10.0262403547        6.6815217116        1.0990666745
 C        -9.6801338484        5.7524686840       -0.0956870007
 O        -8.8879703087        4.8387239244        0.0115812202
 C       -10.4760660132        6.0415415507       -1.3946196389
 C        -9.4256913334        6.3507596088       -2.5352723841
 O        -8.8718683851        5.3958262933       -3.0875409463
 C        -9.0517497237        7.7831789431       -2.8517914596
 C        -8.0197230780        7.9444409682       -3.9221228630
 C        -6.9534428997        6.8524976047       -3.6027498589
 O        -6.5170538139        6.8058563549       -2.4419821164
 C        -6.5351000230        5.8746243923       -4.6539203017
 C        -6.0148465784        4.5137942022       -4.0990854764
 O        -6.7299130107        3.5731404101       -3.8274963070
 C        -4.5138854182        4.3687527740       -3.8590558062
 C        -4.0482123235        3.0176445862       -3.3062554573
 C        -4.7588768838        2.6944487791       -2.0251970853
 O        -5.1755383640        3.5443902193       -1.3088526128
 C        -4.8565112059        1.1724308538       -1.5789789982
 C        -6.3620943663        0.9031650560       -1.8425220048
 O        -7.2631242365        1.7121520101       -1.7980513281
 C        -6.7026488671       -0.5243000378       -1.9842304710
 C        -3.8219385520        0.2965769013       -2.3871422136
 C        -4.6895133556        1.1586533483       -0.0536239292
 C        -7.5404778988        5.5863641944       -5.7558323912
 C        -5.3745121926        6.6404310068       -5.4136051595
 C       -11.1353442358        4.6113426262       -1.6885236336
 C       -11.5859093221        7.0131955781       -1.2841403503
 C        -8.2053062192        4.1848763562        4.9285712820
 C        -6.9671957043        4.1339360862        2.6526907745
 C       -14.0069552457       -1.3520075871        3.5676546206
 C       -11.9187868627       -1.7485769076        2.1708985493
 C       -15.1628942216        5.2123131089        2.9928397464
 C       -17.2120747484        5.2932676034        1.4742244313
 H       -14.5936433808        4.0631632455       -1.3529764396
 H       -15.5243233462        5.5276728562       -1.3663635114
 H       -16.3221152136        4.0435999940       -0.9179720427
 H       -14.7954808098        2.2592882520        3.2251766289
 H       -13.8835824887        2.7043869546        1.7716025414
 H       -15.4972415455        0.6694463494        0.6420278192
 H       -15.7183067020        0.1617239891        2.2631040331
 H       -10.5735990405        0.6648219817        2.2302601287
 H       -10.2227135682       -0.2381713649        3.6030651966
 H        -9.5809134747        1.7729526584        5.0002176237
 H       -10.8266631797        2.8275074845        4.1078219370
 H        -8.2246241396        6.4831919086        2.2287421547
 H        -9.4933855532        6.8652334912        3.1940424221
 H        -9.6503632247        7.7492924659        0.8521305199
 H       -11.1047174018        6.6404615777        1.2521571055
 H        -8.7929062715        8.2731628615       -1.9543073617
 H        -9.9484138750        8.3922979733       -3.2266475304
 H        -7.6215806282        8.9392374612       -3.8768268945
 H        -8.4411484884        7.8434950755       -4.9331251129
 H        -4.1687015644        5.1765675690       -3.0889696965
 H        -4.0095369460        4.5835768395       -4.8054321652
 H        -2.9977249122        3.2093001683       -3.0743419688
 H        -4.1237493339        2.3654544666       -4.2041512256
 H        -6.4022421681       -1.0904107485       -1.1362806266
 H        -6.0782736596       -1.0202406189       -2.8081857808
 H        -7.7072489991       -0.8062535610       -2.2935474940
 H        -4.2105226654       -0.0038910101       -3.4095669405
 H        -3.5264901749       -0.6272099604       -1.7922078578
 H        -3.0138020629        1.0059331417       -2.5844937820
 H        -5.0449494643        2.0203236639        0.4596491468
 H        -3.5756095710        1.0913861238        0.0768177295
 H        -5.1010278887        0.2915256372        0.3072971517
 H        -7.8792785464        6.4693624385       -6.2521896447
 H        -8.3937790259        4.9447648171       -5.5709199274
 H        -7.0916695770        5.0187980814       -6.5273074077
 H        -4.7024612917        6.0420265188       -5.9852590138
 H        -4.8918986588        7.3151232392       -4.7085285285
 H        -5.7410876387        7.2632428443       -6.1545379687
 H       -11.1318835116        4.4435531831       -2.7421175891
 H       -12.1671456205        4.6711314485       -1.3456283974
 H       -10.5433339371        3.8123845707       -1.1849416810
 H       -11.9929416908        7.2368093569       -2.3165987602
 H       -11.3125450206        8.0255015920       -0.8426335677
 H       -12.3593331407        6.5246186597       -0.7157090848
 H        -7.4839347362        3.5862983183        5.3608110763
 H        -9.1005372944        3.9800053797        5.4349867018
 H        -7.8359725942        5.1941359750        5.2271680943
 H        -6.2283420608        3.3362216202        2.8990179634
 H        -6.5340657015        5.0620517522        2.8381655901
 H        -7.1382658958        4.0265900943        1.5979412316
 H       -13.5467190086       -2.1267594781        4.1504916342
 H       -14.6808522198       -1.7438328859        2.8146405817
 H       -14.4708792694       -0.6893256850        4.3159846750
 H       -12.4967522124       -2.5035520606        1.7725123315
 H       -11.2357904611       -2.0349446056        2.9621570221
 H       -11.3880591091       -1.2476925828        1.3681498816
 H       -14.4351928517        4.3757136623        3.2776624796
 H       -15.8920094864        5.3477611762        3.7695973878
 H       -14.5812890937        6.0427802971        2.5910367212
 H       -17.9941358588        4.8778181505        2.0220213021
 H       -17.5607538013        5.2337682679        0.4589880466
 H       -17.1655875155        6.3464957128        1.6345947219
 Na       -7.5659492796        3.9471791354       -1.6354461002
