117

 C       -15.2580354424        4.4654230890       -0.7711485252
 C       -14.9365178268        4.9645689413        0.5947981750
 O       -13.8815021801        5.5617239775        0.7763563600
 C       -15.8882801240        4.6163140575        1.8028891485
 C       -16.0337140971        3.0847577841        1.8850790725
 O       -17.0933489494        2.4921662072        1.9953972574
 C       -14.7375982785        2.2206927796        2.0079743575
 C       -14.8890884906        0.8199029016        1.6091774778
 C       -13.5230843327        0.1654064786        1.4788448089
 O       -12.7658147419        0.4284480109        0.5439607349
 C       -12.9370980015       -0.7336188115        2.7048495113
 C       -12.2691737150        0.3687611999        3.5678550552
 O       -12.8437465434        1.0227415383        4.4542130982
 C       -10.8016060770        0.6394905799        3.1813929874
 C       -10.1683363139        1.8208612715        3.8271815168
 C        -8.8621891297        2.3381566547        3.1316792206
 O        -8.2071783264        1.5146367058        2.4864664621
 C        -8.3977094815        3.7852843609        3.3664942732
 C        -9.4472317981        4.7281571853        2.6106636016
 O       -10.4331294346        4.2283552531        2.1819662353
 C        -9.2567068678        6.1990469183        2.4228251249
 C       -10.1015600979        6.7379163255        1.2567188775
 C        -9.7980258873        5.9149411627       -0.0228234306
 O        -8.8308862053        5.1836862059        0.0182795871
 C       -10.6266152540        5.9608806435       -1.4374022367
 C        -9.5001110560        6.3908442487       -2.3625847321
 O        -8.6913252612        5.6022972320       -2.8182286663
 C        -9.3248460720        7.8343812669       -2.8297987075
 C        -8.1535524843        7.9095818732       -3.8560490850
 C        -6.9212845657        6.9665674606       -3.6466429637
 O        -6.1890940839        7.0486090852       -2.7260914365
 C        -6.4540977055        6.0370235394       -4.8275455579
 C        -5.9077411984        4.7083531090       -4.1477353573
 O        -6.6690207741        3.7893687059       -3.9205515543
 C        -4.4442682522        4.6176173966       -3.7527015977
 C        -4.0547108195        3.1983297841       -3.2199242714
 C        -4.6641158966        2.7540373634       -1.9223473006
 O        -5.1220511676        3.6557173220       -1.1768519459
 C        -4.8214707599        1.1602783381       -1.6149565650
 C        -6.3743096259        0.7528782012       -1.8133382575
 O        -7.3292117013        1.5294993419       -1.7417568286
 C        -6.7194719703       -0.6755310267       -2.0219342294
 C        -3.8916532462        0.3443799386       -2.5073473406
 C        -4.4717617803        0.9261603459       -0.0771980944
 C        -7.5740236216        5.5517138902       -5.7654418370
 C        -5.3103097316        6.7659338324       -5.5378463715
 C       -11.1409757558        4.5750219290       -1.7869757010
 C       -11.7386283929        7.0366669213       -1.3612499553
 C        -8.3013142911        4.1887057063        4.8962798983
 C        -6.9622728529        3.9232559399        2.7125821815
 C       -14.0765741512       -1.5186721398        3.4305484311
 C       -11.9265746139       -1.8244223974        2.1533825735
 C       -15.3673896435        5.2311332627        3.1331549858
 C       -17.3452633721        5.2277954213        1.5808154202
 H       -14.4153628198        4.0175893309       -1.2753596034
 H       -15.5190633376        5.3389985901       -1.3680181130
 H       -16.1148260421        3.8833607857       -0.8389268013
 H       -14.4987679099        2.2229532324        3.1175452992
 H       -13.8709921503        2.5997443173        1.5107854207
 H       -15.5176985365        0.6486784021        0.7200604080
 H       -15.4477112808        0.3470291171        2.4149783989
 H       -10.7492377703        0.6783037485        2.0718370647
 H       -10.2677683178       -0.3264576098        3.4494779356
 H        -9.8612919017        1.5609151020        4.8393555539
 H       -10.8563252380        2.6161702077        3.8538254366
 H        -8.1213438916        6.4662877481        2.1743277834
 H        -9.5609946835        6.7688684401        3.3316196912
 H        -9.8168613729        7.7217487567        1.0242998806
 H       -11.1739744417        6.6045339782        1.4876935675
 H        -9.1899032508        8.5114565206       -1.9188749397
 H       -10.2029525646        8.2645771850       -3.2247018998
 H        -7.6693664082        8.9070194389       -4.0006528298
 H        -8.5421125088        7.6961770452       -4.8275438875
 H        -4.2153785073        5.3128044693       -3.0301125352
 H        -3.8913533254        4.9104054183       -4.6465486069
 H        -2.9490500856        3.1705706583       -3.1740741862
 H        -4.2690671817        2.4974421706       -4.0432204121
 H        -6.9591658506       -1.1384934905       -1.0403670009
 H        -6.0681425341       -1.3942543388       -2.4128219531
 H        -7.6583719840       -0.7292029954       -2.5960832132
 H        -4.0768055794        0.5382883743       -3.5212466328
 H        -4.1657292201       -0.6636554495       -2.3461057480
 H        -2.8532982729        0.4898382399       -2.2228340593
 H        -5.1660510458        1.5469042616        0.4939893384
 H        -3.4435188818        1.1573007462        0.1648253294
 H        -4.5882582149       -0.1960809487        0.1965317808
 H        -7.9745907314        6.3878655929       -6.3886268595
 H        -8.3820199339        5.1209295795       -5.1447750638
 H        -7.4606096288        4.6930301936       -6.4750180034
 H        -5.1965399074        6.4503207861       -6.5616572650
 H        -4.4025082617        6.8001133612       -4.9297439668
 H        -5.4632314926        7.8767081581       -5.5910110607
 H       -11.9789891479        4.7326986757       -2.5299782647
 H       -11.6053325860        4.1415641609       -0.9166712878
 H       -10.3653290309        4.0162992181       -2.2741879423
 H       -12.1505949544        7.1890886872       -2.3176209036
 H       -11.2558834398        7.9374480800       -1.1783034167
 H       -12.5613333851        6.8351507840       -0.6391485520
 H        -7.6233061368        3.5555063866        5.5729004110
 H        -9.3152184187        4.1631035639        5.3943828982
 H        -7.9077092345        5.1739385255        4.9546078329
 H        -6.1930107182        3.4137403366        3.2690369292
 H        -6.6709751073        5.0338319976        2.6646732662
 H        -6.9104939389        3.4701679591        1.6894513699
 H       -13.6514177571       -2.1348306351        4.2390571760
 H       -14.6495377714       -2.0707361135        2.7241251651
 H       -14.6960036974       -0.7434883167        3.8422157824
 H       -12.6143234847       -2.6712022968        1.8476015905
 H       -11.2313216149       -2.0308051828        2.9565597903
 H       -11.4258790352       -1.4535380481        1.2572801208
 H       -14.6337494679        4.6318943616        3.4954361452
 H       -16.2573475307        5.1831351259        3.7724950524
 H       -14.9934878370        6.2039801819        2.8443803926
 H       -18.0368266438        4.9606277325        2.4367071517
 H       -17.8689222606        4.8973497429        0.6937673465
 H       -17.4473093438        6.3641676881        1.5336657036
 Na       -7.4296252077        3.9478369824       -1.4758003967
