117

 C       -15.8000659029        5.1328047771       -1.0520659370
 C       -14.9315686278        5.0699206616        0.1999898716
 O       -13.7140952924        5.1342471619        0.2245364260
 C       -15.7395148809        4.8592378975        1.5424080837
 C       -15.8204995859        3.3409008068        1.5369864509
 O       -16.6810430865        2.7314783422        0.8719110034
 C       -14.9022853112        2.4072605099        2.2959212754
 C       -14.8503438864        0.9815599350        1.7317903383
 C       -13.4258563257        0.3124673484        1.7897461619
 O       -12.7274177478        0.2893206763        0.7917318727
 C       -12.9662965486       -0.3639114177        3.0975265089
 C       -12.0928668537        0.6526668688        3.8993360178
 O       -12.6291839508        1.5039382027        4.5601171189
 C       -10.5341377300        0.8351090859        3.4911985417
 C        -9.9063553841        1.9794434945        4.1357105706
 C        -8.6308563411        2.5601080911        3.3786932264
 O        -7.9079143333        1.8804424547        2.6962535412
 C        -8.1822903537        4.0702293389        3.6954108301
 C        -9.2809695508        4.9211304737        3.1194069667
 O       -10.4546786551        4.7551787363        3.3778523303
 C        -8.9741385307        6.0846676433        2.2281236082
 C       -10.0946775769        6.2798670492        1.1377766825
 C        -9.7704155618        5.7416678138       -0.2139349763
 O        -8.6611010827        5.2444754406       -0.3774217538
 C       -10.7507345021        5.8894771714       -1.4690973903
 C        -9.7518407346        6.0576359117       -2.7108471073
 O        -9.5663046890        5.1104992958       -3.4328238182
 C        -8.9264027605        7.3964922806       -2.7757589507
 C        -7.9281163366        7.4374035242       -3.9196364424
 C        -6.8908148856        6.2644572532       -3.6686443966
 O        -6.6419253312        5.9639991682       -2.5086232069
 C        -6.2315533735        5.5999351380       -4.9241792029
 C        -5.7187763721        4.1294978377       -4.6280991655
 O        -6.5139111138        3.2161334593       -4.6277555412
 C        -4.2615397195        3.9895419437       -4.0426030578
 C        -4.0643470775        2.6580246442       -3.3371680957
 C        -4.8822229350        2.6832666813       -2.0345115547
 O        -5.4109254470        3.6860893552       -1.6197081066
 C        -5.1189549407        1.3658831649       -1.2608442546
 C        -6.7265101737        0.8049675092       -1.7523278290
 O        -7.7241070476        1.4816865517       -1.8776926927
 C        -6.7613315687       -0.6447265875       -1.9467294617
 C        -4.0433472263        0.2529067520       -1.5476155656
 C        -5.2290157525        1.6498180144        0.2496407103
 C        -7.1377758185        5.6306547433       -6.1103222289
 C        -5.0510564055        6.5557630003       -5.2586172102
 C       -11.5539316944        4.5508722888       -1.6426962421
 C       -11.7270195345        7.0745293107       -1.3952768152
 C        -8.1406905070        4.2309180486        5.2800377136
 C        -6.7352060678        4.2808136079        3.1689798881
 C       -14.1321388779       -0.7672027205        4.0114861104
 C       -12.1281180957       -1.6038000837        2.6135795114
 C       -14.8658418038        5.3846844138        2.7636562987
 C       -17.2360052848        5.4495314946        1.4465427083
 H       -15.2013897683        5.3738598324       -2.0184010954
 H       -16.6201847332        5.8108639238       -0.9603830873
 H       -16.3028705515        4.1634054567       -1.3036451362
 H       -15.2992221903        2.3544905331        3.2890012466
 H       -13.8671162030        2.7531099573        2.4395861022
 H       -15.0898962521        1.1325163924        0.7076581601
 H       -15.6081581264        0.3777213681        2.2574272257
 H       -10.4788551772        1.0537881264        2.4235076116
 H        -9.9587475109       -0.1010181649        3.6812045742
 H        -9.5996704550        1.7219358161        5.1149898047
 H       -10.6141360832        2.8008186617        4.1793801005
 H        -7.9385744289        6.1837940563        1.9032568937
 H        -8.9451773689        7.0373078335        2.9401285662
 H       -10.2925156921        7.3441537369        0.9887279904
 H       -11.0291689321        5.9016618892        1.4755456631
 H        -8.3562905519        7.4197336967       -1.8837811238
 H        -9.6638825139        8.2659434410       -2.8662774761
 H        -7.2845070014        8.3024026940       -3.7762093816
 H        -8.4241245315        7.4873836213       -4.9529413860
 H        -4.0385001479        4.7943107844       -3.3462434373
 H        -3.6243030699        4.0942002922       -4.8876086889
 H        -2.9974503629        2.6551293574       -3.0401208291
 H        -4.4060461050        1.9492927217       -4.0410715239
 H        -6.4950495234       -1.1273024607       -1.0621286044
 H        -6.2233218601       -1.0740274994       -2.8302770492
 H        -7.7708136168       -1.0048811042       -2.1496169862
 H        -4.1640024409       -0.0503375702       -2.6006155146
 H        -4.1172773276       -0.6106859044       -0.8314729089
 H        -3.0794725286        0.6861597001       -1.3775836467
 H        -5.6851593854        2.5805277047        0.5427269438
 H        -4.1131232731        1.6249127584        0.6477737637
 H        -5.7371133361        0.8540635044        0.7681562474
 H        -7.4183488518        6.6313243172       -6.4626751808
 H        -8.2096269177        5.3229211771       -6.0096989311
 H        -6.6948915736        5.0882278899       -6.9747620952
 H        -4.1324240585        6.0242127415       -5.5892399539
 H        -4.6588078785        7.0302790848       -4.3197146690
 H        -5.4281344934        7.3264004363       -5.9018029027
 H       -12.5697745514        4.7268364807       -1.8342880886
 H       -11.3160815744        3.9152228687       -0.8079686304
 H       -11.1226387610        3.9925659657       -2.4801170152
 H       -12.3775029610        7.0197308720       -2.2801610701
 H       -11.1939006763        8.0563260874       -1.3205309869
 H       -12.3396707195        7.0543800369       -0.5384601508
 H        -7.6543393546        3.4334451495        5.7657724152
 H        -9.1218993422        4.2043882733        5.7079666238
 H        -7.7798875954        5.2089879569        5.7184617448
 H        -6.1006531180        3.4089873714        3.4297171181
 H        -6.2127770902        5.1234925486        3.4675738121
 H        -6.7548793407        4.3173615804        2.1059310341
 H       -13.7338368822       -1.4355707277        4.7522845401
 H       -14.8748045435       -1.4122108041        3.4620831116
 H       -14.6315600004        0.1508913039        4.4068483155
 H       -12.7197102397       -2.3156163568        2.1237437974
 H       -11.6815833437       -2.0972767353        3.4693918503
 H       -11.3941109795       -1.2136442550        1.9031103400
 H       -14.0375366203        4.6447455273        2.7382810936
 H       -15.4395664952        5.4310283460        3.6437717084
 H       -14.5288032688        6.3555793923        2.5022685049
 H       -17.7648169752        5.2287969607        2.3894239588
 H       -17.8971597021        5.0810475426        0.6307215509
 H       -17.2039437638        6.5737319557        1.4271640211
 Na       -7.9171512680        3.9195194786       -2.1166663504
