117

 C       -15.9653212057        5.7622230754       -0.9706522047
 C       -15.0997584002        5.5416435317        0.2494257421
 O       -13.8687711331        5.6022988324        0.1676108621
 C       -15.7245969846        4.8644475020        1.4984553647
 C       -15.6441434874        3.2247549795        1.2640501115
 O       -16.6388972951        2.6185673970        0.8636801613
 C       -14.3019082413        2.5299623341        1.4348429844
 C       -14.5875446981        0.9688956882        1.6656279601
 C       -13.2809594635        0.3491942745        1.9541798016
 O       -12.5084779824        0.1764070134        1.0577280918
 C       -12.9697852005       -0.2290705406        3.4169229655
 C       -12.0316605645        0.9236854199        4.0716582506
 O       -12.4659888410        1.7281746551        4.8209595410
 C       -10.5894951822        0.9553384488        3.5346750064
 C        -9.8340808440        2.0740082665        4.3156286359
 C        -8.6135350983        2.7268047280        3.5755625735
 O        -8.2611281187        2.3648085603        2.4891010550
 C        -8.1939477078        4.1801737318        4.1414587800
 C        -9.1704506399        5.1617397655        3.3769209087
 O       -10.2789365582        5.4146112570        3.8650332746
 C        -8.7149890325        5.6639943992        2.0052710946
 C        -9.8631409748        6.0221445334        1.0018186968
 C        -9.6107972733        5.3500576854       -0.3807389646
 O        -8.6688619881        4.5678416706       -0.4675102243
 C       -10.4655695562        5.7299475522       -1.6883526916
 C        -9.6232889776        5.9015624167       -2.9947261552
 O        -9.2334456436        4.9238428797       -3.6032365416
 C        -9.2802862593        7.2822256121       -3.6133974484
 C        -8.1935631195        7.0715390435       -4.6659402330
 C        -6.9442196798        6.3438427301       -4.1800919059
 O        -6.6640414660        6.3798780092       -2.9975409021
 C        -5.9589952873        5.6611029885       -5.2797171137
 C        -5.6721396397        4.2465414379       -4.5544827495
 O        -6.6154290798        3.4563781442       -4.4385265467
 C        -4.3258065150        3.8002676254       -4.0665019966
 C        -4.5133606164        2.4393774479       -3.3465281374
 C        -5.0924245925        2.5729852054       -1.8763796930
 O        -5.1579300900        3.6807726263       -1.3424662103
 C        -5.6665227432        1.2731864775       -1.1356296361
 C        -6.9859056905        0.5905280781       -1.7113280895
 O        -7.8302479245        1.2241263249       -2.2340581304
 C        -7.1550578617       -0.9662749358       -1.5458643602
 C        -4.5259171996        0.2131432394       -1.0580120434
 C        -6.0899792887        1.7697704641        0.2767560788
 C        -6.7333173514        5.4243796679       -6.6070387865
 C        -4.6736418160        6.4643553688       -5.2615728538
 C       -11.5168365341        4.5165969532       -1.8886002162
 C       -11.1715196648        7.0668406590       -1.4389531153
 C        -8.3906907080        4.1983638529        5.6500710468
 C        -6.7075151087        4.4068062275        3.9122504705
 C       -14.2851055469       -0.4738138842        4.2029042835
 C       -12.2403531207       -1.5574667575        3.2836059079
 C       -14.9295495215        5.2584315736        2.7450423797
 C       -17.2158541296        5.2819088215        1.7925584544
 H       -15.4486103501        5.5733909118       -1.8822270236
 H       -16.3419070268        6.7516614187       -1.1228605257
 H       -16.8428991823        5.1549150785       -0.8213288778
 H       -13.6157607778        3.0216114358        2.2021858782
 H       -13.8150583517        2.6081270974        0.4866958114
 H       -15.0637486513        0.5124864629        0.7958356049
 H       -15.3665497396        0.9108426026        2.4481282929
 H       -10.7313148731        1.2288081655        2.4575805601
 H       -10.0752374502       -0.0026478506        3.7166166215
 H        -9.5205890095        1.6925896912        5.2891084190
 H       -10.4634548204        2.8596080518        4.5923771052
 H        -8.1118185064        4.8633989516        1.5951785615
 H        -8.0911349706        6.4904896769        2.1928057075
 H       -10.0354124477        7.0777167184        0.9945721276
 H       -10.7961335731        5.6475979580        1.4479188357
 H        -8.8875124974        7.8374177194       -2.6816699993
 H       -10.0796718406        7.8320921908       -4.0476306455
 H        -7.8949587473        7.9898906093       -5.1828328089
 H        -8.6859608987        6.5049067118       -5.4472760921
 H        -3.9065931410        4.5349648588       -3.4495092499
 H        -3.6381277743        3.6390778698       -4.8896747415
 H        -3.5092786980        1.9610386738       -3.3633606261
 H        -5.2059950102        1.8067656864       -3.9478977400
 H        -6.9623716625       -1.4510003529       -0.5402416979
 H        -6.5302960864       -1.5275140838       -2.2183042151
 H        -8.1621577321       -1.1544293329       -1.7820158765
 H        -4.1936021605        0.0496427046       -2.0653243921
 H        -4.7900633281       -0.7439042355       -0.7238214079
 H        -3.6648614683        0.6051277901       -0.4813262582
 H        -6.8808689724        2.5584541880        0.0392489044
 H        -5.3539575596        2.2968389321        0.8948528388
 H        -6.5165423574        1.0199368423        0.9378626826
 H        -6.9426247203        6.2801654339       -7.3164701874
 H        -7.7378742195        4.9425516215       -6.4631690568
 H        -6.2664823748        4.6903101333       -7.3250846236
 H        -3.8194402033        5.8606889027       -5.6762313685
 H        -4.5231013608        6.8436479983       -4.2783676397
 H        -4.7946193848        7.3652642909       -5.9816521172
 H       -11.7826209842        4.4279359254       -2.9395193418
 H       -12.4664739575        4.7211626487       -1.3674890398
 H       -11.0477573188        3.5840604068       -1.6766205660
 H       -11.6480226567        7.4667002766       -2.3232167323
 H       -10.4795839984        7.8459420220       -1.1401000706
 H       -11.9730856827        6.9350582358       -0.7748517014
 H        -8.0396850957        3.2209694888        6.1099398901
 H        -9.3934705437        4.2762408744        6.0635518094
 H        -7.7408052213        4.8982508821        6.1645744686
 H        -6.1493076512        3.7312602032        4.5003048885
 H        -6.3979047781        5.4128957650        4.2451286217
 H        -6.3702295025        4.1961615097        2.9132363489
 H       -14.0811075350       -1.0334880913        5.1368080586
 H       -15.0788137623       -1.0011032946        3.6037797076
 H       -14.7170482227        0.4521460029        4.5461384458
 H       -12.9512387906       -2.3926129617        3.4335906868
 H       -11.4518918831       -1.6159888957        4.0055766687
 H       -11.7184633999       -1.7521579744        2.3623932797
 H       -13.8504763238        4.9508842383        2.6543182794
 H       -15.4581923696        4.8595893001        3.5693443208
 H       -14.8999795687        6.3048150343        2.7767900092
 H       -17.4971045392        4.9274067554        2.8375882585
 H       -17.9858183851        4.8338201853        1.0265970976
 H       -17.2970431366        6.3418079283        1.8435719363
 Na       -7.7173732149        3.6104227221       -2.2408668301
