117

 C       -15.9323182626        5.6569342804       -1.0355413393
 C       -15.0741906228        5.3989437908        0.1931191477
 O       -13.8512320040        5.5052213620        0.1587051446
 C       -15.7626756213        4.8676071316        1.4700554042
 C       -15.7591861014        3.2792908862        1.3757986009
 O       -16.7173377379        2.7441540932        0.8608122422
 C       -14.5076925441        2.4788636189        1.8115077282
 C       -14.6604030594        0.9858378461        1.6775024208
 C       -13.3537442925        0.2454356106        1.9450451061
 O       -12.4975485690        0.2813507630        1.0563549293
 C       -12.9394577817       -0.3752639179        3.3295245247
 C       -12.0786224782        0.7941898915        3.8965997375
 O       -12.5450447550        1.6308004588        4.6824381563
 C       -10.6380792564        0.9584702808        3.3993727634
 C        -9.8222668635        1.9829387588        4.1742729622
 C        -8.6540007667        2.6905014849        3.4688441236
 O        -8.0809598549        2.1518074962        2.5328056394
 C        -8.2215189061        4.1598988126        4.0460573275
 C        -9.2799917033        5.0849282323        3.3944857610
 O       -10.3507347635        5.1640952928        3.9026882218
 C        -8.8576659223        5.8510218427        2.0842265453
 C        -9.9809610858        5.9816174785        1.0698486989
 C        -9.5645284820        5.4972323179       -0.3140531665
 O        -8.7125358770        4.6381651996       -0.4374400391
 C       -10.4733390239        5.8345787320       -1.5616781227
 C        -9.6286480036        5.9784469505       -2.8498025485
 O        -9.3952225572        4.9558242682       -3.4793037610
 C        -9.1302790211        7.3984094704       -3.2574534229
 C        -8.1490275124        7.2910055705       -4.4701567289
 C        -6.9255184984        6.4277616187       -4.0375691193
 O        -6.7281415681        6.3100859239       -2.8467159626
 C        -6.0024122768        5.6186355870       -5.1043040916
 C        -5.7561754031        4.1767420136       -4.5017174843
 O        -6.7072943946        3.4645595752       -4.3260042862
 C        -4.3688996484        3.7100395370       -4.0725860045
 C        -4.2959722032        2.3869465789       -3.2724549600
 C        -5.1194655839        2.5541258639       -2.0175910412
 O        -5.3582621999        3.6333865613       -1.5289558382
 C        -5.5104988546        1.2470666150       -1.1972648153
 C        -6.7945683396        0.6914976077       -1.7322786280
 O        -7.6849847454        1.4905288971       -2.1111404137
 C        -7.0321457524       -0.7763806965       -1.6931263421
 C        -4.2940825998        0.2582665500       -1.1025184137
 C        -5.8212644173        1.6182789797        0.2620816949
 C        -6.7264456333        5.3905222651       -6.4565508136
 C        -4.7760002979        6.5188258004       -5.4400962751
 C       -11.3425078486        4.5205094908       -1.7288262984
 C       -11.4045866075        6.9763912642       -1.3546475038
 C        -8.3292583647        4.1553510392        5.5571365392
 C        -6.8559790384        4.4188843757        3.4897784881
 C       -14.1068396419       -0.5037617310        4.2943433052
 C       -12.1473667306       -1.7182179855        3.1050731501
 C       -14.8501302669        5.3011888285        2.7388090881
 C       -17.1843361249        5.3380780860        1.5516187459
 H       -15.3830328949        5.1054796961       -1.8962664466
 H       -15.9646365705        6.7179479645       -1.3542897485
 H       -16.9986079399        5.3276532023       -1.0158510148
 H       -14.3163187553        2.7020800843        2.8272952015
 H       -13.5957749733        2.7898116310        1.2606890817
 H       -14.9391171489        0.7006482231        0.6581057601
 H       -15.4952874811        0.7799929400        2.3514039184
 H       -10.6639182985        1.3158924893        2.3975566337
 H       -10.1386242660        0.0032300506        3.5090549248
 H        -9.4814968926        1.5904575235        5.1271231637
 H       -10.4419621523        2.8789734299        4.4843723867
 H        -8.0076282144        5.3109151401        1.5799966811
 H        -8.4072148417        6.8708748984        2.4303783078
 H       -10.2561554715        7.0509219214        1.0059577613
 H       -10.9174400280        5.5286715730        1.3925532290
 H        -8.6322872535        7.8431792026       -2.4420423919
 H       -10.0042612140        8.0467802354       -3.5765698013
 H        -7.7768339997        8.3225580965       -4.6003727492
 H        -8.6278524739        7.0095475754       -5.4556265673
 H        -3.9639622330        4.5375256511       -3.4171822735
 H        -3.6889547501        3.6228782655       -4.9273283432
 H        -3.2453570318        2.4049360848       -2.9117507737
 H        -4.5045868548        1.5126095731       -3.9017794686
 H        -6.9637385851       -1.0542587490       -0.6701812841
 H        -6.1197530888       -1.2764591921       -2.1343202837
 H        -7.9389449984       -1.2812137386       -2.1326883351
 H        -4.1179162476       -0.3801245927       -2.0299449276
 H        -4.5564416644       -0.5212103161       -0.2911903719
 H        -3.3894457882        0.7515309248       -0.7430004555
 H        -6.7120018271        2.1342616471        0.4163324561
 H        -4.9917144706        2.2061902221        0.7289062548
 H        -5.8007423384        0.7052198099        0.8572620222
 H        -7.0919287869        6.2974851520       -6.8917863643
 H        -7.5936515534        4.7595384624       -6.5839330308
 H        -6.0076473010        5.0664072805       -7.2031603433
 H        -4.2911308844        6.1249677378       -6.3175021519
 H        -4.0381343494        6.5244555171       -4.5883687009
 H        -5.0962492363        7.4960905192       -5.5958029329
 H       -11.6302903112        4.3543604833       -2.7676134676
 H       -12.2421196477        4.7259582897       -1.1642555878
 H       -10.8629320709        3.5959413907       -1.3476886775
 H       -12.1515995283        7.0020074987       -2.1821829786
 H       -10.9028435908        7.9779661512       -1.3610211032
 H       -12.0416815731        6.8382570371       -0.4566215339
 H        -7.7745558826        3.4280091955        6.0353323759
 H        -9.3059534215        4.0382031838        5.9564523370
 H        -7.9629560460        5.1136929822        5.9561533454
 H        -6.0853741451        4.0959070418        4.2210107705
 H        -6.6505466425        5.4346869076        3.4034244562
 H        -6.6086587586        3.8793221529        2.6011180888
 H       -13.7179916818       -0.9110510754        5.2219240369
 H       -14.8559881126       -1.1987715519        3.9222002644
 H       -14.6557161765        0.4490155578        4.5083499271
 H       -12.8036291450       -2.5269004730        3.0111504018
 H       -11.4092945054       -1.8732832704        3.9008790594
 H       -11.6120387655       -1.6785125571        2.1507636291
 H       -13.8309842777        5.2719505596        2.3681959260
 H       -15.1575196907        4.6678559384        3.5832106057
 H       -15.0968978553        6.3467407315        3.0284109768
 H       -17.5054856399        5.3987325409        2.5605185500
 H       -17.7734473422        4.6591508720        1.0280767454
 H       -17.3241486525        6.3878967764        1.1568693273
 Na       -7.8017499578        3.7936411773       -2.4409253819
