117

 C       -16.0683484863        5.9116915725       -0.7996353051
 C       -15.0873820543        5.5801092865        0.2579464966
 O       -13.8750187016        5.7537802473        0.1844767049
 C       -15.6652658043        4.8890445538        1.5468883372
 C       -15.6728719888        3.2865223507        1.1008540700
 O       -16.6961548138        2.6647421421        0.8554571207
 C       -14.2765015803        2.5638652076        1.1619468491
 C       -14.4652141167        1.0627650470        1.5504620366
 C       -13.1425622970        0.3257378622        1.9484281352
 O       -12.2727060328        0.0446762952        1.1857315008
 C       -12.9116705486       -0.1292174549        3.4845403611
 C       -12.0243175862        0.9608036920        4.1661323637
 O       -12.4449864088        1.7749166510        4.9274278211
 C       -10.5420818697        1.0679985203        3.7374908299
 C        -9.9229303492        2.1414390854        4.5178324201
 C        -8.8716819732        2.9124124688        3.7090501305
 O        -8.4974018808        2.4928958876        2.6270777546
 C        -8.3066499907        4.2430134296        4.2528057865
 C        -8.9896187124        5.2797327605        3.2929053164
 O       -10.0435309662        5.8516951919        3.5874305479
 C        -8.5271087995        5.3571693446        1.8540826053
 C        -9.6621885145        5.8966300608        0.8714383770
 C        -9.4912711433        5.3450659876       -0.4981242333
 O        -8.7010717003        4.4471612558       -0.6450946957
 C       -10.4040329944        5.7896579719       -1.6595980742
 C        -9.5941304744        5.8370781361       -2.9491407712
 O        -9.1733173679        4.7273309951       -3.2848425154
 C        -9.3099272542        7.0786725391       -3.8544010055
 C        -8.2772790247        6.8614087937       -4.9944901195
 C        -6.9599966843        6.2856627568       -4.3868293786
 O        -6.7133832150        6.3766036980       -3.2013015007
 C        -5.8766237014        5.5222799348       -5.2822652919
 C        -5.7531186345        4.0618569847       -4.6897241096
 O        -6.8008626728        3.4588828210       -4.6401270811
 C        -4.4533244942        3.6471345732       -3.9550936320
 C        -4.5861492498        2.3219557146       -3.1833007962
 C        -5.3337251688        2.4909861645       -1.8315445480
 O        -5.4590393965        3.6365365759       -1.4242993269
 C        -5.7148266431        1.1811232636       -0.9847563157
 C        -6.9717124038        0.5698478701       -1.7258180818
 O        -7.7124088693        1.2490547232       -2.3610548936
 C        -7.3093785041       -0.9210753446       -1.5726202369
 C        -4.5780268951        0.1415652977       -0.9026070724
 C        -6.2969245486        1.6613006709        0.3710658579
 C        -6.2972406342        5.4119672885       -6.7305013738
 C        -4.5561028334        6.3240124204       -5.1190051414
 C       -11.5888169054        4.6877696197       -1.7530962773
 C       -11.0903755277        7.1879392269       -1.3437147967
 C        -8.6447954502        4.6360728871        5.7327541867
 C        -6.7390833539        4.2640472102        4.0963224027
 C       -14.2304966062       -0.2763701639        4.2914635496
 C       -12.2716448074       -1.5463911817        3.4024666639
 C       -14.7339727497        5.1892435375        2.8209809766
 C       -17.2109887553        5.2314669124        1.8285558217
 H       -15.7148588828        6.7088271704       -1.4377798574
 H       -16.9996411750        6.3844683586       -0.3321017658
 H       -16.4923250712        4.9956691889       -1.3166808921
 H       -13.7102828979        3.0331636113        1.9427677856
 H       -13.7209983595        2.6993796907        0.2174315138
 H       -15.0530316980        0.5125337285        0.8025725487
 H       -15.1836453132        1.1299507190        2.3378137094
 H       -10.5047727304        1.2481056666        2.6470457889
 H       -10.1174327190        0.1202613893        3.9586306565
 H        -9.5186425781        1.8203813810        5.4718612578
 H       -10.7881486895        2.8116064141        4.8479532473
 H        -8.2228960441        4.2763351097        1.4276107674
 H        -7.7333799413        6.0944506958        1.8110853503
 H        -9.7184603825        7.0033287417        0.9631076280
 H       -10.6104769556        5.5904017514        1.2578275718
 H        -8.9117880047        7.8902681522       -3.1938895968
 H       -10.3096854064        7.4076665161       -4.1233055547
 H        -8.0810179191        7.7976736447       -5.6436296580
 H        -8.6127007733        6.1839572090       -5.7389946272
 H        -4.2459515986        4.4366709653       -3.1819634752
 H        -3.6075368584        3.6849742118       -4.6496922380
 H        -3.6938247675        1.9357472438       -2.8117797818
 H        -4.9807256197        1.4285448850       -3.7956233026
 H        -7.3331775544       -1.3735350543       -0.5079548459
 H        -6.5394411251       -1.5233852367       -2.0342752080
 H        -8.2851470209       -1.0661919681       -1.9811124109
 H        -4.3384678538       -0.4938136972       -1.7828976709
 H        -4.6853437463       -0.5102224034       -0.0411678046
 H        -3.5988608078        0.7350333865       -0.7596686342
 H        -7.1136226906        2.4139857984        0.2357445709
 H        -5.6045600828        2.2208356622        0.9070440639
 H        -6.6705204785        0.8534238485        1.0028144829
 H        -6.8167171762        6.2280939194       -7.1574002554
 H        -6.9746350373        4.5994993147       -6.8015965205
 H        -5.6320074022        5.1049462907       -7.5014551363
 H        -3.8650406618        5.9368884730       -5.8101439625
 H        -4.2721017015        6.3031322551       -4.1164745587
 H        -4.7000379468        7.3600601316       -5.4586977012
 H       -12.5405899398        5.0363724832       -2.2153999611
 H       -11.9306272598        4.4529049523       -0.7487699704
 H       -11.2295975328        3.8305655664       -2.2955827232
 H       -11.8331468284        7.4635987466       -2.1243983320
 H       -10.3835873843        8.0336559465       -1.3284748080
 H       -11.6907175480        7.1332194975       -0.3980067343
 H        -8.3228421031        3.9702528607        6.5412087827
 H        -9.7182748239        4.6953900788        5.8589287411
 H        -8.2622456038        5.5595768884        5.9584149528
 H        -6.2313209482        3.4688058115        4.5846192829
 H        -6.2775643933        5.2528432903        4.3815300892
 H        -6.5308519958        4.1355536691        3.0213760343
 H       -14.1194651330       -0.4588997175        5.3751966264
 H       -14.8245935019       -1.0515944649        3.8608808531
 H       -14.8318311722        0.6058548734        4.2916595420
 H       -12.8993771100       -2.1847978800        2.7274457194
 H       -12.2773229539       -2.0431273515        4.3659052217
 H       -11.2438227999       -1.6045682817        3.1138479850
 H       -13.6890656629        5.3050551828        2.4977175960
 H       -14.8387097926        4.3154676171        3.4950141563
 H       -15.0916485454        6.1611071594        3.2274543768
 H       -17.5719277985        4.5239385528        2.5671256231
 H       -17.7904112826        5.0265640748        0.9141368592
 H       -17.3399791628        6.2155793166        2.1378236196
 Na       -7.6242773289        3.5004980027       -2.4888372129
