117

 C       -16.2012731392        5.9961664842       -0.5408339742
 C       -15.1453204936        5.6488959248        0.4472089327
 O       -13.9627118103        5.8971954182        0.3010601816
 C       -15.5759856329        4.8597302332        1.7546767544
 C       -15.3856421404        3.3861114022        1.3109566401
 O       -16.1325608847        2.8695433514        0.4466174462
 C       -14.1962623031        2.6240323629        1.9371038348
 C       -14.0491475023        1.2396293811        1.3984219668
 C       -12.8346844260        0.5338476161        2.0409605011
 O       -11.7783234146        0.4120516893        1.4929980706
 C       -12.9352979794       -0.0585479068        3.5542999649
 C       -12.3410468096        1.1151681704        4.4434129647
 O       -13.1111824722        1.9914606369        4.7463586361
 C       -10.7896881736        1.2660759447        4.3955366195
 C       -10.3571478463        2.7447889685        4.7799580151
 C        -9.1386200350        3.1924654265        3.9323940039
 O        -8.6076772654        2.5130463661        3.0748473234
 C        -8.5416097841        4.5918958314        4.2624864786
 C        -8.9553763574        5.4806274118        3.0289375159
 O        -9.5123612923        6.5553226212        3.2587732699
 C        -8.6125148828        5.0194461077        1.6543863778
 C        -9.1908713213        5.9809784657        0.6158060817
 C        -9.1982143467        5.4872870003       -0.8434506201
 O        -8.5515209617        4.5171487168       -1.1462813636
 C       -10.3348638868        6.0442404914       -1.8201076587
 C        -9.8020238760        5.7765686878       -3.2162240570
 O        -9.7977969784        4.5710769508       -3.5617870743
 C        -9.1844712138        6.8004242832       -4.1954675556
 C        -8.1603501509        6.2017171860       -5.2232182282
 C        -6.9383533480        5.7535325232       -4.4380190072
 O        -7.0072920927        5.6652019662       -3.2047956565
 C        -5.6701991250        5.3151933686       -5.1886743977
 C        -5.4510934160        3.8227494496       -4.6646031851
 O        -6.4298516431        3.1119199729       -4.7117946555
 C        -4.1782838202        3.4243487721       -3.8723413168
 C        -4.3891350033        2.1695316949       -3.0480526701
 C        -5.4690458072        2.3486801810       -1.9021762924
 O        -5.8741247327        3.4670782411       -1.6400980175
 C        -5.9008020040        1.0520474749       -1.0810126134
 C        -7.1830957584        0.3383441309       -1.7439662792
 O        -8.0014612854        0.8815503569       -2.4269821800
 C        -7.2911972805       -1.2348077211       -1.6259323028
 C        -4.7503546653       -0.0266159147       -1.0355471416
 C        -6.3295101003        1.4631471682        0.3889386762
 C        -5.9094189841        5.3807893084       -6.6716099571
 C        -4.4732705074        6.2646850483       -4.8935418569
 C       -11.5424047781        5.1206503205       -1.5411658145
 C       -10.6526679282        7.5080059783       -1.5970855100
 C        -9.0853182176        5.2915831835        5.5051404845
 C        -7.0406599334        4.3462432490        4.4694995501
 C       -14.3004237993       -0.2998886959        4.1684321012
 C       -12.0906011857       -1.3645421077        3.7002624409
 C       -14.7208692674        5.2383303020        2.9152517071
 C       -17.0743831019        5.0997107454        2.1648201021
 H       -15.7674341403        6.3608739910       -1.4469905912
 H       -16.8367042565        6.7763297090       -0.1216488413
 H       -16.8544025698        5.1992389593       -0.8198177178
 H       -14.2909255828        2.5077389145        2.9757790113
 H       -13.2663186623        3.2741586628        1.8413627544
 H       -13.8727505739        1.2361858712        0.3028342112
 H       -14.8979885886        0.6527521290        1.7006825621
 H       -10.4653099316        1.0118022467        3.3583160324
 H       -10.2741355747        0.4531327082        4.9253833364
 H       -10.1468604364        2.8748944394        5.7820109574
 H       -11.1369475223        3.4336373750        4.4090322733
 H        -8.8140343072        3.9671207398        1.3703298189
 H        -7.5971663513        5.0995896634        1.5798082118
 H        -8.6207984747        6.9097579470        0.6910148126
 H       -10.2060589329        6.1802132478        0.9099261255
 H        -8.7197223810        7.6089525506       -3.6398171794
 H       -10.0497356137        7.3194416880       -4.7010057603
 H        -8.0619578405        6.9500484496       -6.0452867283
 H        -8.5625219942        5.3418564983       -5.6897643228
 H        -4.1043992508        4.2319135485       -3.1431361291
 H        -3.2586436697        3.3083654400       -4.3567952315
 H        -3.4954565973        1.8798393861       -2.5687215186
 H        -4.4986484369        1.1932722097       -3.6051325096
 H        -6.8840013664       -1.6132192311       -0.6250450500
 H        -6.6634722437       -1.6784617328       -2.3660838970
 H        -8.2600999446       -1.6194273794       -1.7349884071
 H        -4.6138992051       -0.5391284336       -2.0180304081
 H        -4.8664565730       -0.8032237195       -0.2936152701
 H        -3.7517464975        0.4428296216       -0.7322549932
 H        -7.1632855684        2.2303269348        0.2612826816
 H        -5.5014194896        1.9721266656        0.8803897317
 H        -6.7553057793        0.7433494991        1.0892181215
 H        -6.1325572378        6.3672785901       -7.1679373664
 H        -6.8276826546        4.8288328097       -6.9877983289
 H        -5.1522037334        4.9675228087       -7.3796400475
 H        -3.6822992594        5.7955533631       -5.4756519738
 H        -4.1452020887        6.3978601989       -3.8775416321
 H        -4.8476350269        7.2504155680       -5.3115107505
 H       -12.4562277161        5.6014227305       -1.9123753680
 H       -11.6017560927        4.8630465741       -0.5087936938
 H       -11.4584188369        4.1753545278       -2.0197501927
 H       -11.2116259202        7.8850824003       -2.4671979274
 H        -9.7368747230        8.0807672846       -1.4334338269
 H       -11.2143071630        7.7058918471       -0.6560010512
 H        -8.8686465893        4.6395585349        6.3869478337
 H       -10.1768190052        5.4255149826        5.4083689759
 H        -8.6972908097        6.2446964614        5.6623884712
 H        -6.9073721998        3.6229316846        5.2005430606
 H        -6.5853991253        5.2854301738        4.8347908661
 H        -6.6261891711        4.0298844237        3.5317265164
 H       -14.1607230828       -0.6012287066        5.2517597548
 H       -14.8731787363       -1.1268422743        3.7858817015
 H       -14.9499324460        0.5807641509        4.0799093437
 H       -12.3693206869       -2.1589402152        3.0204639717
 H       -12.1404894464       -1.7766547689        4.6781547370
 H       -11.0840158399       -1.2664260740        3.4486455247
 H       -13.6656676102        5.2286372195        2.6034172077
 H       -14.8752281579        4.6154052536        3.7829613128
 H       -14.9564305018        6.2668051127        3.2153105009
 H       -17.2849976537        4.3219774576        2.9636110048
 H       -17.7256502952        5.0418982371        1.2255319921
 H       -17.1162297919        6.0567947655        2.6229847643
 Na       -8.1080005905        3.1374390192       -2.9107068244
