117

 C       -16.2444841894        5.9139593488       -0.4759384699
 C       -15.1499848756        5.6976484503        0.5531427638
 O       -13.9803636777        5.9569887061        0.3160771306
 C       -15.5368902625        4.8702079695        1.8626099728
 C       -15.3660391038        3.3895012820        1.3674594999
 O       -16.0005983393        2.8990295818        0.4630947660
 C       -14.2686514395        2.6140694205        2.0824758133
 C       -13.9559633267        1.2951149521        1.4547437512
 C       -12.8129032722        0.4587760870        2.0911574748
 O       -11.7662801859        0.3502469218        1.4499689600
 C       -12.9106099965       -0.0285260945        3.5918714276
 C       -12.3278789981        1.2123508608        4.3399228597
 O       -13.0851890281        2.0856160301        4.7826372619
 C       -10.8317835417        1.3384675679        4.4453748026
 C       -10.4781382205        2.8548705291        4.7522474624
 C        -9.1970131051        3.1684872039        3.9796701970
 O        -8.7363909036        2.4722398119        3.1150776584
 C        -8.6066510014        4.6433262509        4.2716773634
 C        -8.8771275390        5.5529572002        2.9975529689
 O        -9.4786025703        6.5831150101        3.0536139131
 C        -8.5898386631        5.0020190034        1.6326568710
 C        -9.2295315588        5.9663433345        0.6131549467
 C        -9.2585970007        5.4398663162       -0.7796619572
 O        -8.5264838028        4.5297438671       -1.0728751253
 C       -10.2528328864        6.0522016329       -1.8160332418
 C        -9.6967759158        5.7056460413       -3.2713346536
 O        -9.7651831643        4.5300650924       -3.6711588469
 C        -9.2229640273        6.8368267880       -4.2089577289
 C        -8.2367592391        6.2184004947       -5.2028499891
 C        -7.0016110250        5.7748701900       -4.4716448711
 O        -7.0174945557        5.6096911594       -3.2662356810
 C        -5.6411853059        5.2948575655       -5.2289448280
 C        -5.4440757227        3.8879996399       -4.5349902514
 O        -6.3214708811        3.0469883519       -4.7546559831
 C        -4.1384256385        3.4603192591       -3.8811615254
 C        -4.2387861653        2.1768835487       -3.0103243624
 C        -5.3990518647        2.2481743462       -1.9291651901
 O        -5.8881772801        3.3894365539       -1.7908794448
 C        -5.9745638712        1.0434154463       -1.1074310600
 C        -7.1880003392        0.2392132519       -1.7502689417
 O        -8.0734358472        0.7825521453       -2.3669111463
 C        -7.3665211828       -1.3121776511       -1.6045850714
 C        -4.8166836866        0.0298683346       -1.1076047804
 C        -6.4027056036        1.4466528857        0.2829738278
 C        -5.8801362761        5.0784823536       -6.7147153306
 C        -4.5039104319        6.3169217524       -4.7055551291
 C       -11.5278518899        5.1722793567       -1.6156255457
 C       -10.5497695301        7.5663840013       -1.5626439875
 C        -9.1201958787        5.3770960998        5.5595151938
 C        -7.0324232073        4.5033714572        4.4286764208
 C       -14.3768066197       -0.3618038529        3.9901503121
 C       -12.0458084238       -1.2674529195        3.7357065865
 C       -14.7338875035        5.4587081032        3.0188734195
 C       -17.0964313172        4.9793662302        2.1209791299
 H       -15.8906201987        6.5369656950       -1.3123699813
 H       -17.0280465959        6.3773057989       -0.0643202663
 H       -16.6063785907        5.0395844497       -0.9605313205
 H       -14.4345621112        2.5087934034        3.1760009806
 H       -13.3760189801        3.2446231717        2.0534085395
 H       -13.4933667236        1.5378052703        0.5245101412
 H       -14.8400377392        0.6328091708        1.3329798561
 H       -10.2535417054        0.8290437916        3.6705636566
 H       -10.5913150175        0.7205252846        5.2978109926
 H       -10.2606034925        2.9969763003        5.8285364315
 H       -11.2625942053        3.5659102092        4.3567674853
 H        -9.0396706822        3.9610817211        1.4225555269
 H        -7.5263341489        4.7895032642        1.3713943101
 H        -8.6807900641        6.9511768257        0.5638736621
 H       -10.2360744058        6.1312444076        0.9497601012
 H        -8.7185155855        7.6732531047       -3.6597756194
 H       -10.1110651854        7.2731849681       -4.6010301099
 H        -8.0286883502        6.9690028886       -6.0142430178
 H        -8.6624511415        5.3687148235       -5.6676903391
 H        -3.5701691420        4.2761869482       -3.3894460413
 H        -3.5695017370        3.0975717840       -4.7681724589
 H        -3.3508015381        1.7339463589       -2.6370828964
 H        -4.5341239920        1.2881413768       -3.6701821457
 H        -7.1111979704       -1.7500985980       -0.6599647036
 H        -6.8318765735       -1.8427668247       -2.3821199097
 H        -8.4204571129       -1.5664015699       -1.7793712235
 H        -4.5210687007       -0.1989812438       -2.1006022321
 H        -5.0379442837       -0.9139188041       -0.6437061470
 H        -3.9745575060        0.4047070355       -0.5624114782
 H        -7.2373115432        2.0887239621        0.2648231411
 H        -5.5160813253        1.9922406671        0.7829090720
 H        -6.6595877767        0.6894265502        0.9456535573
 H        -6.0567232835        6.0012542593       -7.2947371329
 H        -6.8682864554        4.5941390826       -6.9043188750
 H        -5.2045717281        4.5526834768       -7.4207493438
 H        -3.5448196185        5.8408082573       -5.0070183800
 H        -4.5093096780        6.2894922578       -3.6244101721
 H        -4.7387230787        7.3798620064       -5.0006280176
 H       -12.4081109475        5.4908160462       -2.1192939432
 H       -11.6469518968        4.9735355951       -0.5500532573
 H       -11.2964323664        4.1803608588       -1.9431831636
 H       -11.2089046801        7.9431355452       -2.3421521010
 H        -9.6061992584        8.1327457891       -1.5368819861
 H       -10.9757723383        7.7498268906       -0.6535172366
 H        -8.9890111276        4.7903035627        6.5132412402
 H       -10.1547554100        5.6919502297        5.4428184862
 H        -8.5199389448        6.3312433400        5.6580275869
 H        -6.7749189959        3.9736709403        5.3274462095
 H        -6.5306520851        5.4862005236        4.4709861331
 H        -6.7858180072        3.9114765785        3.5523222025
 H       -14.5304611908       -0.8146772075        4.9723826564
 H       -14.8491376276       -1.1187735383        3.2865601621
 H       -14.9950526163        0.5023168848        3.8592741313
 H       -12.5345649512       -2.1086505001        3.2296302880
 H       -11.8936380587       -1.5574212359        4.7539041854
 H       -11.0852907009       -1.3062428616        3.2590328096
 H       -13.5855127671        5.4292458510        2.7497672806
 H       -14.9276554169        4.9395562486        3.9557166331
 H       -14.9539965566        6.5120578042        3.1597789938
 H       -17.2836396334        4.4691114318        3.0798568663
 H       -17.5939064447        4.5459395966        1.2238665488
 H       -17.3178262304        6.0314993901        2.2423359513
 Na       -8.0716889040        3.0943040178       -2.8671269475
