117

 C       -16.0999043026        6.1313630217       -0.6156690079
 C       -15.1334786523        5.6358088964        0.4351582350
 O       -13.9570535499        5.8664281841        0.1931360863
 C       -15.5641318177        4.7886759275        1.6962283044
 C       -15.4776519960        3.2441710693        1.2147344817
 O       -16.3420017680        2.7857416020        0.5364041167
 C       -14.1902457569        2.5125425472        1.5940413047
 C       -14.3118704264        0.9587467486        1.4180445742
 C       -13.0009143355        0.4206224328        2.0840625334
 O       -11.8963051480        0.4830168558        1.5350945356
 C       -12.9849888882       -0.1025667627        3.5300691720
 C       -12.2305185062        1.0610997004        4.3713965912
 O       -12.8676850953        1.9760793211        4.9016552289
 C       -10.6809670155        1.1829255209        4.2671992569
 C       -10.1837501496        2.4624825065        4.7890007630
 C        -9.0194738014        3.0746911975        3.9533354996
 O        -8.6128166749        2.3849740940        3.0470791403
 C        -8.4608406077        4.5374704279        4.3288435851
 C        -8.9277824054        5.5382515000        3.1726933153
 O        -9.5872822780        6.4986973303        3.3868088398
 C        -8.4990474690        5.2129580503        1.7408585581
 C        -9.1830364679        6.1764366741        0.6284787464
 C        -9.2761327754        5.5105623892       -0.7299411864
 O        -8.6174483779        4.5081665850       -0.9494522444
 C       -10.4079676357        5.9549881145       -1.7935898374
 C        -9.8561073167        5.6311729077       -3.2605940871
 O        -9.8889276233        4.5459498537       -3.7792811814
 C        -9.3501524839        6.8315995928       -4.1137866369
 C        -8.1976530936        6.4030213439       -5.0102325901
 C        -6.9028228275        6.0197445995       -4.3362478131
 O        -6.7564035395        5.8773155307       -3.1364064727
 C        -5.7598740572        5.4070201060       -5.2336386183
 C        -5.6204854705        3.9129329885       -4.6399938489
 O        -6.5026052412        3.1029205098       -4.9062824831
 C        -4.3980928633        3.5564504449       -3.8511173583
 C        -4.5675514743        2.1738213566       -3.1584038269
 C        -5.3912923678        2.3203158043       -1.7906390740
 O        -5.9297335086        3.3880306791       -1.4795513036
 C        -5.7433399761        1.0655390540       -1.0138887953
 C        -7.0193421338        0.4087358574       -1.7669585852
 O        -7.8159832347        1.1036797140       -2.4025183565
 C        -7.2852859643       -1.0698598496       -1.6152840847
 C        -4.5063662168        0.0903085475       -0.8558436197
 C        -6.3132439864        1.4712401808        0.3765644985
 C        -6.0058371235        5.3433172798       -6.7385754308
 C        -4.4259568683        6.1279234508       -4.8949103233
 C       -11.6759981035        5.1186325304       -1.5036731746
 C       -10.6818430941        7.3919955562       -1.5993951815
 C        -9.0476191186        4.9897810995        5.6645268758
 C        -6.9112194899        4.3884535852        4.3529557190
 C       -14.3915505853       -0.3433584654        4.1013068489
 C       -12.1620783260       -1.3928142121        3.5867610835
 C       -14.6424721296        5.1725472224        2.8395398446
 C       -17.0283508416        5.1604271711        2.0510181017
 H       -15.5058091413        6.1305076687       -1.6039239109
 H       -16.4296473795        7.1518518086       -0.4362297692
 H       -17.0376981422        5.5230964685       -0.8091542041
 H       -13.8776757032        2.7306516122        2.6694752305
 H       -13.4084421317        2.9103329795        1.0196833609
 H       -14.3424302022        0.7491081311        0.3682553860
 H       -15.2056865816        0.5167533504        1.9145731008
 H       -10.4504449117        1.2029874131        3.1940928390
 H       -10.0739472627        0.3255737972        4.5726281831
 H        -9.7833130346        2.2686511357        5.8327605796
 H       -10.9665760749        3.1904496042        4.8103572856
 H        -8.6702210774        4.1981753595        1.4165423179
 H        -7.3863880997        5.4783988854        1.5615135879
 H        -8.5383008505        7.0513707479        0.5787687171
 H       -10.1893411410        6.5161719429        0.9302660153
 H        -9.0839078005        7.6946525800       -3.4556431743
 H       -10.0903172449        7.2539646803       -4.7603928783
 H        -8.1092640627        7.1857322180       -5.7559327800
 H        -8.5570477892        5.5446983627       -5.6731651499
 H        -4.2526681366        4.3484834369       -3.1236134090
 H        -3.4694840991        3.4967885250       -4.4859344513
 H        -3.6605084200        1.5147598469       -3.0954205424
 H        -5.1274779998        1.4603980744       -3.7128654983
 H        -7.1890157633       -1.3960101948       -0.6141018780
 H        -6.5548939298       -1.7118324133       -2.1969191812
 H        -8.3412553632       -1.2956760867       -1.9512737879
 H        -4.4179875217       -0.4252316908       -1.8229386924
 H        -4.5453818993       -0.7200947637       -0.0714637929
 H        -3.5786046639        0.5858618589       -0.6543471916
 H        -7.1013908591        2.1572800360        0.2778369455
 H        -5.5825293591        1.8861077117        1.1349365589
 H        -6.8436519489        0.6326693176        0.7931884069
 H        -6.3602663952        6.2261890296       -7.1632419104
 H        -6.6471394207        4.6376633832       -7.1881627342
 H        -5.1045993271        5.1828272142       -7.2589706077
 H        -3.6019886171        5.6391697582       -5.3780570090
 H        -4.3121067153        6.1142254221       -3.8263564133
 H        -4.5602070332        7.1156733628       -5.2113608685
 H       -12.4363708812        5.5446148046       -2.1376520471
 H       -12.0180593084        5.1865398068       -0.4406706037
 H       -11.5784269935        4.0393499266       -1.7565658664
 H       -11.3572692993        7.6948430451       -2.4204010074
 H        -9.7626919195        8.0252307564       -1.5808045500
 H       -11.1145175601        7.5959490213       -0.6565108038
 H        -8.6727732896        4.3242429796        6.3959500246
 H       -10.0846785825        5.0884935854        5.7348517940
 H        -8.6921624319        6.0264379471        5.8995737785
 H        -6.8007122067        3.6099314916        5.1557863375
 H        -6.4362162290        5.3031833840        4.7014906213
 H        -6.4361802106        4.1341911668        3.3881092507
 H       -14.3458236507       -0.6565022392        5.0932609269
 H       -14.9971199707       -1.1434944767        3.6381950019
 H       -14.9705594089        0.5513611077        4.0422969705
 H       -12.5204034710       -2.2606694961        3.0442639868
 H       -12.1417151264       -1.7704075619        4.6208947140
 H       -11.1155645458       -1.2914075988        3.2252133098
 H       -13.5729143657        5.0032273672        2.4761834049
 H       -14.7913475760        4.5777056443        3.7472880996
 H       -14.8995338007        6.2018601040        3.0876859781
 H       -17.3233476179        4.5471174022        2.8428087499
 H       -17.6410399294        5.0668827107        1.2050437106
 H       -16.9644339757        6.2215794004        2.3658639228
 Na       -8.0336320804        3.3564014835       -3.0096632449
