117

 C       -16.0784306845        6.0169865049       -0.5301934327
 C       -15.3115788006        5.9986227126        0.7594151821
 O       -14.4247520532        6.8304690379        0.8477308887
 C       -15.5846960053        4.9672288504        1.9023321243
 C       -15.1565008418        3.5266171362        1.4225336904
 O       -15.7322740702        2.8809996197        0.5783457862
 C       -13.8424613694        2.9153935270        2.1156400850
 C       -13.6236108941        1.5749561183        1.4947820470
 C       -12.5937991249        0.5984845501        2.2498002135
 O       -11.5290988303        0.3808901862        1.7287955458
 C       -12.8264779885        0.2084910024        3.7128504879
 C       -12.3775992276        1.4585493495        4.6831131768
 O       -13.1920809122        1.8983900469        5.4207915176
 C       -10.8509111261        1.7567118136        4.7585074463
 C       -10.6225101782        3.2888814316        4.7811025936
 C        -9.2616203248        3.6703314580        4.1300070889
 O        -8.7223823987        2.8432117275        3.3829799638
 C        -8.6944397418        5.1327858297        4.2502683598
 C        -9.2163341469        5.7987673937        2.8525935095
 O        -9.9023823717        6.8048663943        2.8707035590
 C        -9.0100364228        5.2225957298        1.4805042204
 C        -9.6583771297        6.0344983972        0.3579205679
 C        -9.6467934807        5.2962626868       -0.9523179678
 O        -9.0868108442        4.2079921791       -1.0422965895
 C       -10.3808276209        6.0821161334       -2.1083232334
 C        -9.7167415344        5.5723041247       -3.4083994106
 O        -9.8056992205        4.3711101323       -3.7049819232
 C        -8.9759512011        6.6005240720       -4.3290738543
 C        -8.0188642591        5.9494965222       -5.3859411420
 C        -6.7777643265        5.4387789356       -4.5872528703
 O        -6.7163594836        5.4209573301       -3.3968631890
 C        -5.4661735861        4.8683362577       -5.2957044686
 C        -5.4359297899        3.4783723322       -4.6472277589
 O        -6.4374134940        2.7998856709       -4.7869095674
 C        -4.2165479696        2.9240680876       -3.9195889091
 C        -4.5072195506        1.6215299051       -3.1789182933
 C        -5.3563718353        1.8105411315       -1.9502276158
 O        -5.6903330529        2.9337190822       -1.6240632714
 C        -5.8167535082        0.4867083231       -1.2202509709
 C        -7.1512123116        0.0044401274       -2.0490661141
 O        -7.7531121426        0.7918245360       -2.7391725389
 C        -7.5701210126       -1.3682454431       -1.7132038575
 C        -4.6509639869       -0.6332473255       -1.2425753022
 C        -6.3070956940        0.6595307845        0.2697607762
 C        -5.4595530285        4.7973112176       -6.7703048039
 C        -4.3509525426        5.6861172027       -4.5611251103
 C       -11.8424664281        5.6861134124       -2.0830953172
 C       -10.2978984837        7.6369340487       -1.8862684403
 C        -9.2506717508        5.8901050459        5.4891543915
 C        -7.1346710281        5.0113878534        4.2989829553
 C       -14.3515026817        0.0349929531        3.9412641239
 C       -12.0264448016       -1.0293949997        4.2004811493
 C       -14.8596905509        5.5110644343        3.1222768559
 C       -17.1682394508        4.8777910429        1.9907919592
 H       -15.4306965820        6.2903397444       -1.3201931406
 H       -16.8851119280        6.8595111853       -0.4713731552
 H       -16.5904073571        5.1035512120       -0.8538929982
 H       -14.0025606420        2.8798210527        3.2196297006
 H       -13.0188615468        3.5428525226        1.8727703035
 H       -13.3489621314        1.6216396266        0.4740501015
 H       -14.6626573792        1.1360801576        1.4176121379
 H       -10.3326495464        1.3299168338        3.8515701451
 H       -10.5234183443        1.2447149435        5.6946129269
 H       -10.5866548807        3.6593601991        5.8072758784
 H       -11.3531705252        3.8687366217        4.3286813040
 H        -9.4429919272        4.2824898921        1.4604379465
 H        -7.9160561376        5.0015404651        1.2908028037
 H        -9.1315673115        7.0043094030        0.3038179195
 H       -10.5918450985        6.3688960515        0.6844538803
 H        -8.4431831930        7.3909792012       -3.7256000334
 H        -9.7900918445        7.0480386824       -4.9021382298
 H        -7.9033174103        6.6503640820       -6.1953250872
 H        -8.5654468914        5.0556167971       -5.7177550041
 H        -3.9161708176        3.6109168408       -3.1706498732
 H        -3.3520521277        2.7288188764       -4.5011413933
 H        -3.4955178184        1.3531821901       -2.8146914036
 H        -4.9552199243        0.8446033598       -3.8188829776
 H        -7.3462074436       -1.7211225133       -0.7514641863
 H        -7.1626312109       -2.0507235985       -2.5057821083
 H        -8.6610661048       -1.4851640192       -1.9196505142
 H        -4.5714622077       -1.0252116828       -2.2821026910
 H        -4.9201016291       -1.4347724607       -0.4896710982
 H        -3.6869244269       -0.2309402814       -0.9659440740
 H        -7.1577949603        1.3820980434        0.2263377824
 H        -5.6318014556        1.1487228073        0.9210916262
 H        -6.6853106378       -0.3280539545        0.7514397049
 H        -5.8092191276        5.7018612341       -7.2035483369
 H        -6.0152384048        4.0256155481       -7.2411020454
 H        -4.5142819671        4.6611030881       -7.2470008281
 H        -3.4014465001        5.3004824278       -4.8502162356
 H        -4.5841590081        5.5300247349       -3.4879540820
 H        -4.3464977261        6.6934841832       -4.7523844476
 H       -12.4551119368        6.1493341279       -2.8307270068
 H       -12.2896228908        6.0975509181       -1.1591762863
 H       -11.9929297975        4.5838428167       -2.1344790710
 H       -10.5828851949        8.1655723591       -2.8046926455
 H        -9.2799827635        7.9737989262       -1.6351436002
 H       -10.9912748702        7.7991853340       -1.0310227997
 H        -9.0344994088        5.3047134926        6.3207345031
 H       -10.3058162703        5.9636366111        5.3932104699
 H        -8.7915678818        6.8963493520        5.5461254922
 H        -6.8150541719        4.5237198881        5.2769955862
 H        -6.7847952129        6.0178171796        4.1969095052
 H        -6.8520551887        4.4221305263        3.4130238838
 H       -14.5202774100       -0.2607241999        4.9426757547
 H       -14.7395945131       -0.7476591485        3.2604623317
 H       -14.8596574813        0.9826462195        3.7834763838
 H       -12.4405043469       -1.9266713317        3.7373001104
 H       -12.1170817332       -1.2384387633        5.2806493673
 H       -10.9169651471       -0.9639988956        4.0339727885
 H       -13.8239629335        5.4991293359        2.9394715819
 H       -14.9741767444        4.9069894304        4.0497078054
 H       -15.1551768726        6.5239957256        3.3704279427
 H       -17.3797114686        4.5411048426        2.9832891562
 H       -17.5504874598        4.1617608705        1.3354329770
 H       -17.5499742646        5.9401169107        1.8312220057
 Na       -7.8611043393        3.2267993896       -2.7209637741
