117

 C       -16.1530024991        5.9833594737       -0.5651489973
 C       -15.2593056724        6.0562561965        0.6748291108
 O       -14.3388919750        6.8130985328        0.8714391169
 C       -15.5902867693        5.0111279960        1.8308590948
 C       -15.1267288386        3.5318500821        1.3784290146
 O       -15.7442987108        2.8808384447        0.6039106260
 C       -13.9470594101        2.8797503993        2.1186915463
 C       -13.5800919060        1.4653405273        1.5084586286
 C       -12.4995437028        0.6772951256        2.2267258705
 O       -11.5822180322        0.2126262498        1.5410210487
 C       -12.7966445829        0.2235750935        3.6964161411
 C       -12.4096997980        1.2876739846        4.6773942658
 O       -13.2130775327        1.8546340925        5.4057684838
 C       -10.9186303628        1.7946397874        4.7864685322
 C       -10.6160393891        3.2545145085        4.8918205358
 C        -9.2815038726        3.6718760334        4.1526717764
 O        -8.7559835647        2.8599005416        3.4292331398
 C        -8.6899357658        5.0935883850        4.2845242057
 C        -9.1541847915        5.8439525737        2.9908651047
 O        -9.8333093800        6.8351641252        3.0995563846
 C        -8.8790610695        5.1115372880        1.5470213856
 C        -9.5229018550        5.9645821441        0.4068958824
 C        -9.5771516275        5.2780786591       -0.9403038235
 O        -9.0796637264        4.2185570667       -1.1262415610
 C       -10.3625500404        6.0733530056       -2.1043744466
 C        -9.7461874089        5.5899790832       -3.4962771259
 O        -9.7186210752        4.3903287102       -3.8251696368
 C        -9.0783197446        6.5900093871       -4.4235549709
 C        -7.9805155626        5.9541392083       -5.3412751655
 C        -6.8525651268        5.4490305911       -4.5493122100
 O        -6.8604793510        5.4373223295       -3.3223056698
 C        -5.4862010315        4.9308780753       -5.2608909034
 C        -5.4516918234        3.4036421856       -4.6606857690
 O        -6.4756195140        2.7712551874       -4.7847744026
 C        -4.1688704676        2.9188022925       -3.9601039788
 C        -4.3880687921        1.6320790367       -3.1153495206
 C        -5.3597477428        1.8751060144       -1.9128373416
 O        -5.7909712383        2.9994483577       -1.6404933772
 C        -5.8876521852        0.6129079790       -1.1956664302
 C        -7.0782917203        0.0654331225       -1.9518945378
 O        -7.6084555174        0.8518031379       -2.7030221782
 C        -7.5960176621       -1.3645506551       -1.7389104341
 C        -4.7192814410       -0.4559292826       -1.3264458515
 C        -6.3025040989        0.7573085749        0.2833524273
 C        -5.4625084803        4.8595850377       -6.7747595414
 C        -4.3250665480        5.8888477940       -4.5980115224
 C       -11.8387220958        5.6261735917       -2.0383415548
 C       -10.2609181254        7.5791909595       -1.9241194034
 C        -9.1662471048        5.8979678902        5.4670084117
 C        -7.1267328498        4.8417882592        4.3614684395
 C       -14.3544589428       -0.0560803969        3.9058744706
 C       -12.0123629240       -0.9990931541        4.1015623946
 C       -14.9458690288        5.5217222287        3.0723983264
 C       -17.2207719483        4.8897541548        2.0955693633
 H       -15.7145525819        5.9910975833       -1.6167684104
 H       -16.9233289832        6.7354578969       -0.5160593194
 H       -16.7153220593        4.9806962642       -0.5282730622
 H       -14.1859897853        2.8700803551        3.1498720729
 H       -13.0858212002        3.5853790546        1.9419237209
 H       -13.3384692376        1.4676351046        0.4470729292
 H       -14.5060024785        0.8731591321        1.5077391855
 H       -10.3887825499        1.4637062557        3.8506198955
 H       -10.4824543416        1.2576355659        5.6466509026
 H       -10.6458312392        3.6120302841        5.8687768649
 H       -11.3498807363        3.8790368129        4.3408220785
 H        -9.2300963447        4.1005950842        1.5197794233
 H        -7.8642710548        4.9542791280        1.4355961729
 H        -8.9890519684        6.9621777208        0.3724311281
 H       -10.4833212736        6.3032380872        0.7889826077
 H        -8.5579910438        7.3133650651       -3.7421976642
 H        -9.7926147588        7.1072519403       -5.0701067155
 H        -7.6940993209        6.8338673404       -6.0156201341
 H        -8.3849730883        5.1654248458       -5.8812872867
 H        -3.8347656228        3.7419723439       -3.2934879536
 H        -3.3530582356        2.6594712192       -4.6037195222
 H        -3.4437364713        1.2623325077       -2.8628636021
 H        -5.0011249825        0.8804988374       -3.7702528951
 H        -7.6838818382       -1.6765729163       -0.7131096021
 H        -7.1610736275       -2.1697909729       -2.3487250089
 H        -8.6439426022       -1.3579519387       -2.1812977583
 H        -4.4923694051       -0.5738912308       -2.3477196552
 H        -5.0254978553       -1.3902214262       -0.8911941389
 H        -3.8294466435       -0.1194063207       -0.8530541833
 H        -7.0262905818        1.5240076514        0.3215659293
 H        -5.4892696128        1.1338118160        0.9960336268
 H        -6.7193407657       -0.1348604622        0.6640880156
 H        -5.6543650643        5.7049439894       -7.3280258049
 H        -6.1304747343        4.1300975471       -7.1399565841
 H        -4.6053857280        4.4785540538       -7.2073983508
 H        -3.3932451735        5.6585983106       -5.0251745580
 H        -4.3736447335        5.8695852474       -3.5606569253
 H        -4.4797123901        6.9090506502       -4.9587727605
 H       -12.4543740361        6.2568763592       -2.6907295546
 H       -12.3060752388        5.8411994060       -1.0518807527
 H       -11.9923045621        4.6005621888       -2.3395263149
 H       -10.5627309803        8.1347069988       -2.8220097044
 H        -9.2196980822        7.8740708663       -1.7417048744
 H       -10.8658588584        7.7554883600       -1.1268922816
 H        -9.0030606246        5.2379838907        6.3391010857
 H       -10.1933721306        6.1247200549        5.4198326912
 H        -8.4991730620        6.7800459911        5.5110328233
 H        -6.8939630498        4.0331102634        5.0711050454
 H        -6.7571552710        5.8477676649        4.6949042205
 H        -6.7958044709        4.5805236839        3.3231495341
 H       -14.5261052026       -0.0078903583        4.9737002892
 H       -14.6539977446       -1.0353198358        3.5127524354
 H       -14.9796772943        0.6992679953        3.5353830233
 H       -12.3206946776       -1.8532011471        3.4251949191
 H       -12.2812423658       -1.3576048928        5.1072524963
 H       -10.9184838326       -0.8865595631        4.1784129113
 H       -13.7746433897        5.4932058687        2.9640760752
 H       -15.1615920570        4.9250634809        3.9596395765
 H       -15.1722031832        6.5460623036        3.2731593605
 H       -17.2641553410        4.3265659555        2.9876054037
 H       -17.7175396340        4.3131029736        1.3634506227
 H       -17.6022572593        5.8770703474        2.2614237529
 Na       -8.0126648246        3.1889774385       -2.7713623503
