117

 C       -16.1625095227        5.9659874718       -0.5811262585
 C       -15.3081884435        5.9462512783        0.6535264355
 O       -14.3667959848        6.7021844012        0.6977243650
 C       -15.5724175856        4.9717445690        1.8764022140
 C       -15.1664939813        3.5351881089        1.4307732718
 O       -15.8318531030        2.9865351604        0.5330183487
 C       -13.9300268191        2.8671377456        2.1558764325
 C       -13.5797639154        1.5170754647        1.3951827510
 C       -12.5886291371        0.5807601216        2.1087008901
 O       -11.6254436013        0.0936515222        1.5518746771
 C       -12.8041221804        0.1953150398        3.6868711434
 C       -12.4350826993        1.3932390471        4.7248350572
 O       -13.2536656705        1.9318754315        5.4533020851
 C       -10.8953592443        1.7694414434        4.7480228545
 C       -10.6567255358        3.2066230448        4.9345798090
 C        -9.3537999049        3.5974107874        4.1911205567
 O        -8.8180906161        2.7842735545        3.4828340290
 C        -8.6761164309        4.9876357336        4.3583703310
 C        -9.1079622070        5.7929802743        3.0511140254
 O        -9.7009737386        6.8326134304        3.1734185005
 C        -8.8084449332        5.1812551433        1.6947224838
 C        -9.4329467587        5.9955274477        0.5055047416
 C        -9.4809202031        5.3029207819       -0.8948391317
 O        -9.0693315950        4.1580452991       -1.0881907402
 C       -10.2831063432        6.0421983069       -2.1383731008
 C        -9.6343215400        5.5908664728       -3.5625270110
 O        -9.7486329844        4.4257422049       -3.8913424470
 C        -9.1455306188        6.6814712573       -4.5617653199
 C        -7.9696148328        6.0292027874       -5.3820042109
 C        -6.8546402157        5.5357264517       -4.4682751392
 O        -7.0708229102        5.4536844971       -3.2353498849
 C        -5.5360231566        4.9494093931       -5.0853312397
 C        -5.4297143081        3.4596336026       -4.5987542753
 O        -6.3752530990        2.7055536481       -4.7687911159
 C        -4.1677448267        3.0028707763       -4.0369175798
 C        -4.3891102868        1.7466955483       -3.1031578206
 C        -5.3836964895        1.9510331304       -1.9193323414
 O        -5.8867046769        3.0167838378       -1.6172253256
 C        -5.8041674250        0.6666623030       -1.1701152830
 C        -7.1401995977        0.1842195888       -1.9480833823
 O        -7.7459612370        0.8525180111       -2.7810492199
 C        -7.6101713632       -1.2401908509       -1.8145550516
 C        -4.7084827102       -0.5231323908       -1.1854793136
 C        -6.1605889748        0.9690635447        0.2872261013
 C        -5.5065447120        4.9872247521       -6.5855681960
 C        -4.3726093071        5.9459727962       -4.8088424726
 C       -11.8014486667        5.4979044252       -2.0303784051
 C       -10.2167659222        7.5536923723       -1.9822325017
 C        -9.0827034796        5.8722550076        5.5662019453
 C        -7.1041424313        4.7609392808        4.3406465388
 C       -14.2658020787       -0.2089252960        3.9006012323
 C       -11.9615091441       -1.0933688067        3.9135034803
 C       -14.9835499379        5.4577224783        3.1344657288
 C       -17.1137474116        4.9361879560        2.1376280250
 H       -15.5385582012        6.0996450621       -1.5282520956
 H       -16.8893060512        6.7303587701       -0.5462136337
 H       -16.6779470016        5.0249426849       -0.7702471421
 H       -14.2891145925        2.7454024321        3.1669515612
 H       -13.0789896626        3.6051837482        2.1724531866
 H       -13.1410516188        1.6919360680        0.3687803932
 H       -14.5174214342        1.0545688643        1.1925122779
 H       -10.4601026934        1.4250102504        3.8286185414
 H       -10.3870348861        1.2511247675        5.5622904483
 H       -10.5449662718        3.4427547626        6.0011431423
 H       -11.5094029843        3.8779207287        4.5612868132
 H        -9.0105797755        4.0576377991        1.7033907180
 H        -7.7484511579        5.0866324369        1.6508524056
 H        -8.9241410930        6.9661623542        0.4595350272
 H       -10.4847620302        6.3230738076        0.8537615593
 H        -8.7792198512        7.5141388234       -4.0269680645
 H        -9.9637073436        6.9871378311       -5.2470545315
 H        -7.6147791013        6.8491349746       -6.0179534565
 H        -8.3951094611        5.1827993941       -5.9530180694
 H        -3.5934944070        3.8376631205       -3.5353735384
 H        -3.5366449879        2.5529818096       -4.8634118081
 H        -3.3934864662        1.4875062191       -2.6526411163
 H        -4.7382294488        0.8833204831       -3.6869026329
 H        -7.7876724579       -1.4625748016       -0.6919523651
 H        -6.9053939340       -1.9529086031       -2.1937956050
 H        -8.4604584357       -1.4961075150       -2.3845250365
 H        -4.3926754527       -0.6956166718       -2.1728950722
 H        -5.0782502193       -1.3934733689       -0.7991898386
 H        -3.8106870823       -0.2166624075       -0.6754261585
 H        -6.7908678054        1.8334599819        0.2895444335
 H        -5.3195722795        1.2229255190        0.9382199505
 H        -6.6642838495        0.1904666875        0.7462544678
 H        -5.4788078349        5.9165471887       -7.1248311718
 H        -6.2914790846        4.4295683568       -7.0366913861
 H        -4.7365768579        4.4200193966       -7.0544189214
 H        -3.5204571398        5.6856227753       -5.4272539504
 H        -4.1636511832        6.2527550288       -3.8165823395
 H        -4.7056754705        6.8214795247       -5.4268991703
 H       -12.4505254148        6.2073939989       -2.5896370427
 H       -12.1951926769        5.5685190564       -1.0327656892
 H       -11.9765307669        4.5293629383       -2.4495850278
 H       -10.7524917161        8.0189510241       -2.7681268523
 H        -9.2271529249        7.8759911905       -2.0951800382
 H       -10.6812729904        7.8038434434       -1.0381816292
 H        -8.9249413190        5.3230012391        6.5484259715
 H       -10.1851889764        6.1185215358        5.5131262193
 H        -8.4345138917        6.7014788866        5.4932470378
 H        -6.9324309436        3.8585675490        4.8914862338
 H        -6.7230325759        5.6397726116        4.9173274342
 H        -6.6893439286        4.6014025416        3.3354405365
 H       -14.5344430295       -0.1892687129        4.9834339563
 H       -14.4292387750       -1.1538985759        3.4690196837
 H       -14.9930652517        0.4919686435        3.4661125869
 H       -12.0865979399       -1.8228578848        3.0995670695
 H       -12.1797206882       -1.6257723630        4.8479920022
 H       -10.9180783768       -0.8605023751        4.0673492417
 H       -13.8552403475        5.5520815726        3.1049831958
 H       -15.2385907259        4.7766650488        3.9799561444
 H       -15.3070142847        6.5099201611        3.3901827582
 H       -17.2738390611        4.1336793669        2.8460941157
 H       -17.6138739552        4.6483948256        1.1946799107
 H       -17.3620733451        5.8279086537        2.5463500921
 Na       -8.0784317966        3.1025590207       -2.8897761413
