117

 C       -13.1018297807        2.6639948386        0.8786783701
 C       -13.0765483536        2.0561751178       -0.5144947009
 O       -12.8562188898        2.7856709311       -1.5294976142
 C       -13.1265197386        0.5491476917       -0.6983413344
 C       -11.6198169834        0.0433933930       -0.6421773238
 O       -10.9338885872        0.1536232538       -1.6925850911
 C       -11.0463414604       -0.4643670088        0.7071489109
 C        -9.5417065243       -0.1122714087        0.7458451351
 C        -8.4918148142       -1.0711825072        1.3680611597
 O        -8.7528093156       -2.1569258301        1.8430466597
 C        -7.0235915601       -0.4684898512        1.2815989004
 C        -6.9469101250        0.7219027850        0.3136791089
 O        -7.2007355828        1.8092915595        0.8812090315
 C        -6.4633501422        0.6673884863       -1.3228188650
 C        -6.6624049095        2.0174114856       -2.2019452813
 C        -7.3799799301        1.9356924139       -3.5003685039
 O        -8.6084776317        1.8741524535       -3.4892688349
 C        -6.5746127822        2.3770632790       -4.8597801013
 C        -7.1607638447        3.5902903729       -5.6879722585
 O        -6.2534549318        4.3173921320       -6.1307266541
 C        -8.6945382047        3.8220498039       -5.8233185003
 C        -9.0372611879        5.1324883928       -4.9952604672
 C       -10.4106401635        4.9769691271       -4.4121308530
 O       -11.1985042240        3.9675691711       -4.5975944411
 C       -11.0077137636        6.0089626243       -3.5271987018
 C       -10.4143003865        5.4627374796       -2.1554804517
 O       -10.5336060642        4.3259352636       -1.7770467215
 C        -9.6844416030        6.4106393395       -1.1646097815
 C        -8.2000833327        5.9992010071       -0.7349018834
 C        -7.8256460555        6.7940680882        0.5098820916
 O        -7.7888023916        7.9918399967        0.5834261424
 C        -7.6958776949        6.1226613654        1.9513091873
 C        -9.1501306847        5.4285105932        2.3044885263
 O        -9.7581584735        4.9267441964        1.3508195502
 C        -9.6425203691        5.3253821375        3.7032314626
 C       -11.0165487022        6.0988981167        3.6447372367
 C       -11.6533059645        6.1653126083        5.0398083633
 O       -10.9422203553        6.1775527029        6.0724004406
 C       -13.1601052685        6.7084530891        5.1323453786
 C       -14.2336505022        5.3930713519        4.9980060970
 O       -13.6818567568        4.3875837776        4.5895597347
 C       -15.6645067114        5.4945824336        5.5121418541
 C       -13.3945248705        7.2251278237        6.6205827304
 C       -13.3407915872        7.9380591882        4.2172760532
 C        -6.7572082916        4.8678475234        2.0856396613
 C        -7.2406563760        7.2220866277        2.9376909889
 C       -10.6060213771        7.5599142997       -3.6907317988
 C       -12.5359917287        5.8254616200       -3.3287536692
 C        -5.0473180838        2.3640045334       -4.7753628517
 C        -7.0709725168        1.1703067400       -5.7536017077
 C        -6.4097336077       -0.0686884182        2.6395469257
 C        -6.3825446341       -1.7403718505        0.6717019541
 C       -13.9182761596       -0.2447318763        0.3914594262
 C       -13.7225516512        0.1852870328       -2.0889025083
 H       -13.9154733192        3.4306263712        0.8231206096
 H       -12.2327179405        3.3027756363        1.0141037663
 H       -13.2760285729        1.9933715019        1.6905202756
 H       -11.1774287927       -1.5925752246        0.7580195624
 H       -11.5629019679        0.1563560575        1.5961234973
 H        -9.4402717726        0.9131587485        1.0013710823
 H        -9.2880127565        0.0126559993       -0.3012832106
 H        -7.0696202306       -0.1454059140       -1.9321265772
 H        -5.3308951274        0.4487605752       -1.1361221125
 H        -5.8711320600        2.7107867886       -2.2948888449
 H        -7.4262284375        2.6118218007       -1.6741090995
 H        -9.3257328047        2.9890025788       -5.4878873094
 H        -8.9543590807        4.0728959202       -6.8616253399
 H        -8.6483688364        5.9814794028       -5.6981936731
 H        -8.3335910464        5.2103553316       -4.1752647509
 H       -10.2873368441        6.3740535729       -0.2708027957
 H        -9.7802428187        7.4911643740       -1.2952974622
 H        -7.5435949561        6.1215174381       -1.5825705337
 H        -8.3413233256        4.9412314726       -0.4377960314
 H        -8.9104485898        5.5765667633        4.5877885418
 H       -10.0599125041        4.3012038406        3.8485286539
 H       -11.7105405921        5.6914132755        2.8981677306
 H       -10.9563713227        7.1152835520        3.2964619878
 H       -16.4736378789        4.9453070212        4.8230113912
 H       -16.0285369390        6.4767449654        5.7881589603
 H       -15.6597339250        4.9434524799        6.4398710213
 H       -14.2860490134        7.8923979470        6.8893162682
 H       -12.5414075690        7.7602573743        7.0218205930
 H       -13.3693175063        6.3717581753        7.3446170811
 H       -13.1956381640        7.6703240974        3.2350398216
 H       -12.5150544021        8.6568913678        4.4436230596
 H       -14.3738827423        8.3001242238        4.2282279512
 H        -6.8310437243        4.3926726258        3.0678563223
 H        -5.6674461609        5.3061106247        2.1557242461
 H        -7.0185336509        4.1339099267        1.3279143734
 H        -7.2293873996        6.8828619425        3.9680383104
 H        -7.9407383304        8.0652006209        2.8272544512
 H        -6.1908082903        7.4692467636        2.7470270683
 H       -11.3725826865        8.2109359102       -3.3627186158
 H       -10.3975643331        7.7163686227       -4.7242162942
 H        -9.6374358435        7.8419605505       -3.2406346158
 H       -12.8782355559        6.5663864434       -2.5994325240
 H       -12.8487785389        4.8528252747       -2.9871637575
 H       -13.0735500648        5.9730207205       -4.2769618564
 H        -4.7755971549        3.2097754976       -4.0785243659
 H        -4.4135356291        2.5578117489       -5.6744292792
 H        -4.6235993333        1.4181994462       -4.3962219009
 H        -6.6199902503        0.2275643505       -5.3257021494
 H        -6.7966818810        1.3943845301       -6.8008884836
 H        -8.1724409001        1.0290797382       -5.7925381977
 H        -5.3501543936        0.1687868108        2.5833558109
 H        -6.6505843192       -0.7154826382        3.4971449234
 H        -6.8979192527        0.9404483624        2.8396077030
 H        -6.4970026485       -2.5928462417        1.3673304678
 H        -5.3571179227       -1.7002840034        0.4272866929
 H        -7.0537458275       -2.0516186010       -0.2375908057
 H       -14.8588255452       -0.6005943653       -0.0138003197
 H       -13.9944385787        0.3264061376        1.3151455273
 H       -13.4721555143       -1.2573387185        0.5240412813
 H       -14.6884042177        0.7035480732       -2.0925199651
 H       -13.7834652211       -0.9077669354       -2.0673853463
 H       -13.0589682474        0.4733214531       -2.8278646918
 Na      -10.9704117612        2.3052409786       -2.8381216183
