117

 C       -16.2109680900        5.8915265749       -0.5668904895
 C       -15.2537866323        5.7228467472        0.6003501744
 O       -14.1295927659        6.1489743534        0.4225677011
 C       -15.6402232390        4.9084635158        1.9286615990
 C       -15.2025485964        3.4485143474        1.5536481831
 O       -15.7427367497        2.9934658558        0.5238436705
 C       -14.2063603258        2.6280872733        2.3230956003
 C       -13.8194099420        1.3709518765        1.4324105477
 C       -12.6672075569        0.5042193123        2.0395217566
 O       -11.7301262963        0.1615861406        1.3840464896
 C       -12.9134047142        0.0511491313        3.5934701604
 C       -12.5051402948        1.2756370679        4.4373602840
 O       -13.3125337676        2.0639138280        4.8446095023
 C       -10.9470007099        1.5654642853        4.6677602472
 C       -10.5287828529        2.9502399895        4.8841156426
 C        -9.2109318460        3.3371442045        4.1033894204
 O        -8.7508774801        2.5584250208        3.2714907300
 C        -8.6082698946        4.7296320553        4.2643222226
 C        -8.9813557985        5.6383976259        3.0493545460
 O        -9.4161750735        6.7825039746        3.2098062304
 C        -8.6324653408        5.1287756247        1.6863785242
 C        -9.2431759624        5.9745070622        0.5109255219
 C        -9.2229220600        5.2825320817       -0.8521972707
 O        -8.5298610573        4.2776585588       -1.0203120186
 C       -10.1919728582        5.9093638715       -1.9297935438
 C        -9.6900402399        5.6377076644       -3.3894830798
 O        -9.6461149258        4.5004292450       -3.8042160501
 C        -9.2672109513        6.8378483471       -4.3744668501
 C        -8.1068512921        6.4048931790       -5.3009142130
 C        -7.0638713145        5.6423423699       -4.4108667449
 O        -7.1911710893        5.7408441182       -3.1804029128
 C        -5.7084021121        5.0728980866       -5.0380568594
 C        -5.4582942585        3.6475775928       -4.4756508922
 O        -6.2724641754        2.7596073926       -4.6197887305
 C        -4.1119980870        3.3667742266       -3.8134556937
 C        -4.2032828712        2.0653440892       -3.0740311459
 C        -5.3900462673        2.0926402954       -2.1119077581
 O        -6.0060946356        3.0918021529       -1.9344471566
 C        -5.8575618440        0.8361299306       -1.3637191863
 C        -7.2221427553        0.1843132131       -1.9121457006
 O        -8.1035682309        0.8946467240       -2.3423240653
 C        -7.4295396563       -1.2046409126       -1.5588599622
 C        -4.7353617418       -0.0813520323       -1.0765801581
 C        -6.4003725952        1.4027050493       -0.0351654911
 C        -5.6086414867        4.9340065536       -6.6656677014
 C        -4.6927825090        6.2130864722       -4.7708395716
 C       -11.6096698013        5.3265668106       -1.7454887210
 C       -10.3071056854        7.4621634876       -1.7010599686
 C        -9.1315678883        5.5036015375        5.5222854527
 C        -7.0847709481        4.6372879521        4.2597843052
 C       -14.3675442583       -0.3600929694        3.7454141417
 C       -11.9986267508       -1.1516806274        3.8783774361
 C       -14.8460284835        5.5341090572        3.1140125144
 C       -17.1332019781        4.9718988806        2.2332499415
 H       -15.8881407552        6.5457581851       -1.3788826910
 H       -17.3041177447        6.1408825440       -0.3146448944
 H       -16.2230076920        4.9135343988       -1.1219425441
 H       -14.6189373594        2.4173099530        3.3000314778
 H       -13.3254158467        3.2594524377        2.5632648431
 H       -13.3911752494        1.7448319903        0.4726612721
 H       -14.6406622332        0.7113804792        1.2593468968
 H       -10.5210050958        1.2060609190        3.7280554156
 H       -10.4658449844        0.8779416955        5.3919993029
 H       -10.3417369937        3.1451451071        5.9363419981
 H       -11.3782166896        3.5351858575        4.5165369764
 H        -8.8053531826        4.0744700629        1.5854065606
 H        -7.5586320787        5.1175488816        1.5697347296
 H        -8.6655230444        6.8836613952        0.3962798973
 H       -10.3139775482        6.2396771603        0.7821865939
 H        -9.0081294833        7.6981432184       -3.8111959817
 H       -10.2519789141        7.0796384074       -4.8768640037
 H        -7.6355141230        7.2565592139       -5.7814794134
 H        -8.6436909037        5.7583233882       -6.0616588102
 H        -3.7947944184        4.1271298010       -3.0930919455
 H        -3.4014884897        3.2915165845       -4.6564497465
 H        -3.3324532002        1.6807877463       -2.4825966486
 H        -4.3471274265        1.2129343552       -3.6968684685
 H        -7.4725699864       -1.3519644211       -0.4277343963
 H        -6.7477374683       -1.9173777452       -2.0359775492
 H        -8.3977542715       -1.4876597902       -1.9315221342
 H        -4.2565404715       -0.5916628332       -1.8991197003
 H        -5.0904559137       -0.8346646694       -0.4260549414
 H        -3.9620269074        0.5095567022       -0.5570535050
 H        -7.2938562386        2.0594902422       -0.1350795186
 H        -5.6869129542        1.8385272214        0.5575498063
 H        -6.7069971392        0.5442295317        0.5868580276
 H        -5.7835631786        5.7456108797       -7.2999137352
 H        -6.0978909335        4.1688200425       -7.1660269458
 H        -4.6100525324        4.7217700191       -6.9014475095
 H        -3.7099351794        5.9169784781       -5.0294252291
 H        -4.7567149307        6.5453229430       -3.7433823572
 H        -5.0553055866        7.0218737850       -5.3690498230
 H       -12.1658780066        5.4284574698       -2.7066608253
 H       -12.1219348259        5.6998505209       -0.8725869931
 H       -11.5658411730        4.2426736134       -1.5530200475
 H       -10.9182773186        7.9936293836       -2.4016566267
 H        -9.3132109942        7.8437414521       -1.6924640370
 H       -10.7995983602        7.6622745158       -0.6932343015
 H        -9.0232121811        5.0022899081        6.4776690949
 H       -10.2253764733        5.6179026063        5.3154796697
 H        -8.6926013221        6.4518604146        5.5953908790
 H        -6.6396489152        4.5771823430        5.2727259123
 H        -6.7454416186        5.6083017552        3.8548476746
 H        -6.8348095383        3.7338029905        3.6607153053
 H       -14.4407836890       -1.0242619030        4.6051608393
 H       -14.7007423179       -0.8987899090        2.9177748921
 H       -15.0986919785        0.4342190283        3.9216108970
 H       -12.4410008036       -2.1289276801        3.6436679257
 H       -11.5273677396       -1.1730242857        4.8971238030
 H       -11.1226172429       -1.1669800047        3.1881076227
 H       -13.8243959887        5.6911142407        2.8904155339
 H       -15.0034190884        4.9503156638        4.0482903075
 H       -15.1926736768        6.6034383744        3.2906086900
 H       -17.2610134399        4.8168340326        3.2699907804
 H       -17.5403146583        4.1951809231        1.6252570639
 H       -17.4936477946        5.9336418362        1.9898712560
 Na       -8.0255198231        3.1718129315       -2.8906452098
