117

 C       -15.9660481623        6.0523421821       -0.4979888682
 C       -15.0613023034        5.9469713141        0.7346786333
 O       -13.9695416774        6.4624892072        0.8336414379
 C       -15.5862905586        5.0170438797        1.9208132631
 C       -15.1824886400        3.5680883750        1.4035683965
 O       -15.6386221617        3.0791146691        0.4224679564
 C       -14.0458235188        2.9000745818        2.1910280915
 C       -13.7805378715        1.4303030084        1.6924556644
 C       -12.6282170304        0.8505041829        2.4461048656
 O       -11.5086564056        0.7821547996        1.9456633024
 C       -12.8317483177        0.5092989302        3.9823824484
 C       -12.2325371620        1.7141729184        4.7707025514
 O       -13.0145526918        2.5735110665        5.1392658183
 C       -10.6079039660        1.8776589972        4.7827452787
 C       -10.2735979257        3.3835892969        5.1553208249
 C        -9.0974230515        3.8229910192        4.3467180457
 O        -8.3694142510        3.1049625522        3.6685972901
 C        -8.8772938307        5.3661072241        4.1971892433
 C        -9.7611855068        5.9080510441        2.9331895718
 O       -10.5418066248        6.8073888589        3.1369000830
 C        -9.5271039934        5.3657129103        1.5362663952
 C       -10.0540013628        6.1693261206        0.3498922906
 C        -9.6069760249        5.5308557754       -0.9975490763
 O        -8.7748859965        4.6599295401       -0.9809624186
 C       -10.3258737992        5.9973254008       -2.4172498381
 C        -9.4349994409        5.4986561085       -3.5757164490
 O        -9.3533547733        4.3019261751       -3.8143188474
 C        -8.7868687716        6.5734117582       -4.4633916105
 C        -7.6757984964        6.0698258220       -5.3703794747
 C        -6.6433893958        5.3737264248       -4.5628175446
 O        -6.7274418504        5.4819157892       -3.3234294260
 C        -5.4243285660        4.5246674042       -5.1706288489
 C        -5.4577569483        3.0467357684       -4.5341357312
 O        -6.4909048680        2.4404089694       -4.4533433072
 C        -4.1257865054        2.4349054008       -4.0101929231
 C        -4.3471828061        1.1345447826       -3.2235027715
 C        -5.3331063723        1.4123869021       -2.0750856262
 O        -5.7141702449        2.5350832549       -1.8186842326
 C        -5.9611728017        0.1995391316       -1.3402910397
 C        -7.3720618745       -0.0964380117       -1.9914346152
 O        -8.1135183323        0.8618042256       -2.0140173251
 C        -7.7946160594       -1.5143327351       -2.4352027293
 C        -5.0218196453       -1.0009636416       -1.5437424826
 C        -6.1805002752        0.6520395088        0.1259173741
 C        -5.4328111809        4.4071797782       -6.6856965773
 C        -4.1221178215        5.3547268094       -4.7807871172
 C       -11.6758395681        5.2689337330       -2.6105403247
 C       -10.5535990508        7.4993249546       -2.3751868845
 C        -9.3860122028        6.1600186843        5.3928865816
 C        -7.3786622385        5.6787053684        3.8694882007
 C       -14.4140082110        0.3224836584        4.3177236266
 C       -12.1309090850       -0.8272899630        4.1954614411
 C       -15.0053619707        5.5528519991        3.2277990029
 C       -17.1383527088        4.9801794971        2.1807470208
 H       -15.6457032117        6.7407613312       -1.2224060153
 H       -16.9522799625        6.3572972713       -0.1937723084
 H       -16.1792860738        5.0866969451       -0.9295451001
 H       -14.2804421454        2.9148863586        3.2256089574
 H       -13.1281234116        3.5266617977        2.0310043154
 H       -13.4537654996        1.4685582657        0.6172120340
 H       -14.6097822380        0.7565197406        1.7985260786
 H       -10.2540945393        1.5997709094        3.7931682662
 H       -10.2516339594        1.2313926988        5.5778991892
 H       -10.1204166017        3.4960949614        6.2021603598
 H       -11.1360157825        4.0748918345        4.8687731297
 H        -9.9852711935        4.3294953808        1.3218157028
 H        -8.4358312755        5.3669932404        1.3293340128
 H        -9.6879773404        7.1805355532        0.5007719213
 H       -11.1351538702        6.2795376802        0.3441870657
 H        -8.4433297641        7.3961031473       -3.8458078288
 H        -9.5662580264        6.9985828071       -5.1184813504
 H        -7.1570484025        6.8691710117       -6.0016680952
 H        -8.1237144064        5.4524606436       -6.1188827869
 H        -3.5130321464        3.1472676881       -3.4580797972
 H        -3.4558502492        2.2463302118       -4.8415809198
 H        -3.4046814268        0.9380305526       -2.7920263431
 H        -4.8024512774        0.3887367282       -3.9109853141
 H        -8.2020621278       -2.0485454061       -1.6188944497
 H        -7.0638066822       -2.1644412837       -2.8743542862
 H        -8.6530219100       -1.3451472770       -3.1383736441
 H        -5.1345123244       -1.2502693760       -2.6258192365
 H        -5.3737630372       -1.9035934409       -0.9597980899
 H        -4.0139273140       -0.6911586762       -1.1871423192
 H        -6.8172169530        1.5461452780        0.0654531075
 H        -5.2534574472        0.9288769921        0.7409494772
 H        -6.7853430013       -0.1070976449        0.6465728038
 H        -5.8054274252        5.2816699935       -7.2483853855
 H        -6.2369569772        3.7107817349       -7.0179819641
 H        -4.4467363119        4.0885910190       -7.0838899974
 H        -3.2013699332        4.8863009498       -5.1198568593
 H        -3.9898113319        5.5177287326       -3.7314039506
 H        -4.2905950619        6.3705422857       -5.1941596124
 H       -12.1761368295        5.5654960615       -3.5615034527
 H       -12.3763190541        5.4265949066       -1.7716248282
 H       -11.5471523546        4.1959607117       -2.6696873032
 H       -11.1296639666        7.7725628419       -3.3059424218
 H        -9.5459824757        7.9922342020       -2.1929029628
 H       -11.1656530250        7.8146914658       -1.5665348680
 H        -8.9600894273        5.7969488745        6.3179802908
 H       -10.4261137882        6.1811582958        5.3672500899
 H        -9.0079612835        7.1801150348        5.2822588122
 H        -6.8697160904        4.8532298694        4.3210530500
 H        -7.0204494462        6.6615178342        4.2437722077
 H        -7.2145808969        5.6530259847        2.7864924184
 H       -14.4662546798        0.2136167497        5.4106690572
 H       -14.7278477028       -0.6301030979        3.8655579429
 H       -15.0124749970        1.1144071059        3.9466409909
 H       -12.4547414027       -1.6532378363        3.5120878622
 H       -12.3474029057       -1.1292003503        5.2290799227
 H       -11.0640306732       -0.7508090522        4.0227506938
 H       -13.8529875269        5.5297346434        3.2786274099
 H       -15.2203023338        4.9628777199        4.0876084288
 H       -15.2599703069        6.5385116760        3.5154477496
 H       -17.2725483193        4.3827465171        3.1151032346
 H       -17.6215158745        4.5578471841        1.2953730293
 H       -17.5981034017        5.9685275414        2.3767939986
 Na       -7.8803468720        3.1422154988       -2.5263206499
