117

 C       -12.9334590890        2.7074355307        0.7837243858
 C       -13.0684921731        2.0146946111       -0.6044837025
 O       -12.8971980641        2.6530401854       -1.6574943537
 C       -13.2199311420        0.4096193574       -0.6652369009
 C       -11.7083065145        0.0937034517       -0.6132351715
 O       -11.0684541115        0.1566769514       -1.6220758291
 C       -11.0595479330       -0.2574006878        0.7202302788
 C        -9.4900484123       -0.0833631091        0.8149874786
 C        -8.5368325570       -1.0865534008        1.4856010259
 O        -8.7666061489       -2.0581459271        2.0699746733
 C        -7.0264744120       -0.6159191039        1.2098211738
 C        -6.9634213557        0.7091826903        0.4048857154
 O        -7.3345001991        1.7921043764        0.9082406356
 C        -6.6485129488        0.6172702261       -1.1212921811
 C        -6.7091802305        2.0478503041       -1.8757713426
 C        -7.3822510174        2.0735786535       -3.4343216823
 O        -8.5823532690        1.9228977701       -3.5786515125
 C        -6.6281514745        2.1403756346       -4.8856556533
 C        -7.1008512310        3.5354822695       -5.6659362125
 O        -6.2838167452        4.1699287364       -6.2712804736
 C        -8.5326795755        3.7262205737       -5.7494697371
 C        -9.0486766090        4.9968718861       -4.8376822822
 C       -10.5261250104        5.0310799631       -4.3966039199
 O       -11.1374288583        3.9665773321       -4.5588325924
 C       -10.9097101762        6.1413038122       -3.3752700822
 C       -10.2552473670        5.5831996085       -2.0204970497
 O       -10.5830757833        4.4310325692       -1.8079905124
 C        -9.3991018644        6.4230045189       -1.1737801368
 C        -7.9606211602        5.9261455538       -0.8297996831
 C        -7.8057359160        6.7211469241        0.5081668995
 O        -7.8752818920        7.9235235958        0.2938765973
 C        -7.7121618287        6.1541520576        1.9584264430
 C        -9.1202038591        5.4025842919        2.2883169024
 O        -9.6188704770        4.8687591816        1.3390115635
 C        -9.7631502946        5.2156126569        3.6605038149
 C       -11.1594294846        6.0240084716        3.6227059912
 C       -11.6833633834        6.4612915524        5.0689411002
 O       -10.9065642045        6.4078335949        5.9937494255
 C       -13.1611902682        6.8432406639        5.1849732196
 C       -14.1251385740        5.5558234971        5.0601744882
 O       -13.6692316549        4.5466686903        4.6035295863
 C       -15.5285357881        5.5466422672        5.4225656575
 C       -13.4681350657        7.4375426708        6.6304297620
 C       -13.3438109377        7.9075493780        4.0942393968
 C        -6.6557418501        4.8861270564        2.0540679054
 C        -7.2702358173        7.1890065226        3.0225858406
 C       -10.7066754279        7.6092913697       -3.9026733820
 C       -12.4679815326        6.0417806923       -3.2010686949
 C        -5.1683331917        2.2993272822       -4.7273443686
 C        -7.1089568037        0.9889091321       -5.8126227095
 C        -6.5066306993       -0.3240131372        2.6276724507
 C        -6.2429274730       -1.8632044438        0.6816626070
 C       -13.9121873729       -0.3453025159        0.4743846477
 C       -13.9266632574        0.1614083686       -2.1115665494
 H       -13.8064414089        3.4193816056        0.9129158251
 H       -12.0799178977        3.4310683391        0.7482600221
 H       -12.8376294004        2.0381337320        1.6626414862
 H       -11.2144115763       -1.3618722433        0.7469349482
 H       -11.5985464965        0.3076603130        1.5762447466
 H        -9.2164039413        0.9519894614        0.9945165452
 H        -9.1373722125       -0.0074624923       -0.2709647674
 H        -7.4235967840        0.1212611958       -1.6521813584
 H        -5.6868261424        0.1659273008       -1.1657838092
 H        -5.7388170994        2.4403185314       -2.0820595742
 H        -7.1721461799        2.9644447671       -1.3491425894
 H        -9.0410010183        2.8478381689       -5.3536238498
 H        -8.7973853904        3.8519841670       -6.8024976234
 H        -8.6499518097        5.7949289158       -5.4015514814
 H        -8.3073784014        5.0408247225       -3.9005627857
 H        -9.9482851785        6.8647697661       -0.3936189282
 H        -9.2517711316        7.4117684287       -1.7537147374
 H        -7.3696495411        6.3763619011       -1.6827026441
 H        -7.9432866298        4.8777148779       -0.8531966259
 H        -9.1674678389        5.5515019042        4.4667120591
 H        -9.9894513320        4.0890060730        3.8214512789
 H       -11.9394476456        5.7493486940        2.9232194805
 H       -10.8402359959        7.0021066293        3.1701148652
 H       -15.9954356880        5.0524848306        4.6174725337
 H       -16.1117483994        6.5258210090        5.5732405978
 H       -15.7351417676        4.9221251206        6.2668866367
 H       -14.5021490075        7.9018828748        6.5543595203
 H       -12.8280644732        8.3250516911        7.0121605112
 H       -13.4941038624        6.7737317910        7.5080003974
 H       -13.3341314328        7.3637772180        3.2115729999
 H       -12.4020618073        8.4950552745        4.0752648728
 H       -14.1471745935        8.5062946640        4.1444753031
 H        -6.9499565313        4.2842508641        3.0578156790
 H        -5.6453405210        5.2433636020        2.3010077069
 H        -6.8212725665        4.1778735524        1.2727040248
 H        -7.2428892507        6.8551492579        4.0640779718
 H        -7.9298652805        8.1313441154        2.9526865366
 H        -6.1581811999        7.3661075523        2.8161887770
 H       -11.4153651430        8.1978243486       -3.4534985645
 H       -10.8894619884        7.5886510866       -5.0103662514
 H        -9.7537294230        8.0716064677       -3.8402155867
 H       -12.9447492817        6.6893205997       -2.4336147438
 H       -12.8733738400        5.0642318623       -3.1198523698
 H       -12.8261304298        6.4066561591       -4.1960711796
 H        -4.9586010790        3.3216682166       -4.2225432014
 H        -4.5799808659        2.3482154156       -5.7105579583
 H        -4.5707506096        1.4846567075       -4.2109275503
 H        -6.9298028645       -0.0415936934       -5.5383709584
 H        -6.6786686352        1.3377753515       -6.7777667671
 H        -8.1658267070        1.1172679706       -6.0403532356
 H        -5.5365935289        0.0070169091        2.5461721645
 H        -6.5518462509       -1.0837807129        3.4262160803
 H        -7.1023680362        0.5594132066        2.9306389723
 H        -6.3100486098       -2.7186920557        1.4008638432
 H        -5.1192015001       -1.7432010829        0.4417487558
 H        -6.7711001423       -2.1836317128       -0.2025600022
 H       -14.9479285267       -0.4049209288        0.2036005790
 H       -13.7547172048        0.1811379230        1.4780534246
 H       -13.6057639108       -1.4006923612        0.4506226350
 H       -14.7026777634        0.8892371085       -2.0751798064
 H       -14.2510526551       -0.8671408728       -2.1402486487
 H       -13.1755250093        0.3120443629       -2.8559853461
 Na      -10.9709303892        2.1980919912       -3.0038731700
