117

 C       -15.9813276602        5.8172528772       -0.4798304467
 C       -15.1792365210        5.9910257370        0.7831723484
 O       -14.2061843420        6.7377847461        0.8650071670
 C       -15.6213035442        5.0070788015        1.9300244950
 C       -15.1424436372        3.5440184848        1.3884588095
 O       -15.6454105653        3.0361385623        0.4486135639
 C       -13.9083295157        3.0078151829        2.0486719600
 C       -13.6043706062        1.5456861013        1.5416263307
 C       -12.6002438302        0.8737698347        2.4556608652
 O       -11.4430920391        0.7581435469        2.0878233655
 C       -12.9301099834        0.3257381628        3.8933297840
 C       -12.3213541009        1.4885188249        4.7352653454
 O       -13.0341664822        2.2940784885        5.2535599996
 C       -10.7757929593        1.7701552877        4.7328480873
 C       -10.5260945784        3.2314050364        4.7751091808
 C        -9.1360785177        3.6739179272        4.1390855174
 O        -8.4678444320        2.9078785007        3.4481093472
 C        -8.8552501320        5.2110305694        4.1435100897
 C        -9.5530563935        5.9332098803        2.8569786105
 O       -10.1837738334        6.9547988297        3.0516918141
 C        -9.2263261633        5.3319675912        1.4792944335
 C        -9.8841026322        6.1057233669        0.2538934117
 C        -9.6270217069        5.4322238846       -1.0289324263
 O        -9.0912212336        4.3578281386       -1.1068474269
 C       -10.3533771812        6.0903514453       -2.2331176458
 C        -9.6671259736        5.6298939579       -3.5356800019
 O        -9.4905181784        4.3960627615       -3.6976838306
 C        -9.0586518633        6.5323177081       -4.6017096763
 C        -7.8640021033        5.8795180251       -5.2869841909
 C        -6.7196306279        5.4752880642       -4.3794499117
 O        -6.6133763976        5.5154522338       -3.1797410483
 C        -5.4033716251        4.8415253222       -5.1704466550
 C        -5.3610418656        3.3231454846       -4.6184097240
 O        -6.3375510507        2.6811593902       -4.9030532912
 C        -4.0913423123        2.6704272561       -3.8981746859
 C        -4.3793639338        1.3082000378       -3.2605209348
 C        -5.2675357031        1.4982858320       -2.0185711876
 O        -5.5178092919        2.6477232216       -1.6788896497
 C        -5.8922287887        0.2233120178       -1.2095739803
 C        -7.2576274026       -0.1299118292       -1.8238610186
 O        -7.9731174414        0.6557481201       -2.3817090860
 C        -7.6906965056       -1.6160642052       -2.0595075673
 C        -4.9349208319       -0.9290978207       -1.2839318580
 C        -6.3058205607        0.7573139627        0.1802455290
 C        -5.7869247444        4.7508974087       -6.6833412453
 C        -4.1431034863        5.6378620968       -4.8225750981
 C       -11.8138230810        5.6168638755       -2.1881822668
 C       -10.4083818939        7.6149324774       -2.1276382481
 C        -9.4588602360        5.8570463957        5.4362953649
 C        -7.3299712485        5.4341950099        3.9502223169
 C       -14.4682666527        0.2081480145        4.2150917162
 C       -12.1427785305       -1.0082501241        4.1685653919
 C       -14.9316205404        5.4198554672        3.2856210344
 C       -17.1244830953        4.9302095479        2.1291243834
 H       -15.7384042619        6.5108838824       -1.2403502808
 H       -17.1125507889        5.9268461462       -0.3262485189
 H       -15.8952968477        4.7963208582       -0.8822522909
 H       -14.0694084247        3.0513763831        3.1053219470
 H       -13.0772218402        3.7045332528        1.7405192738
 H       -13.1891740649        1.4903073449        0.5553714677
 H       -14.5422218161        0.9578112337        1.4686100440
 H       -10.3260328734        1.4036035634        3.8128609526
 H       -10.3868013350        1.3483809046        5.6364569360
 H       -10.6473280611        3.5608831846        5.7924787997
 H       -11.3049049372        3.8744395879        4.2217230049
 H        -9.4832709593        4.3248124420        1.3444075574
 H        -8.1543643067        5.4023275737        1.3829863120
 H        -9.5448338746        7.2178315710        0.3391536410
 H       -10.9661440707        6.2948925108        0.3338672790
 H        -8.6975732226        7.5081802185       -4.2050693609
 H        -9.8928484649        6.7205124293       -5.2526891806
 H        -7.5042717453        6.5395462495       -6.1635677404
 H        -8.2202696151        4.9679699632       -5.6704769395
 H        -3.6828212328        3.3570087393       -3.0686500333
 H        -3.2969027350        2.6836461975       -4.6761286164
 H        -3.5148203312        0.9070806193       -2.8611098858
 H        -4.9907017115        0.7229790254       -4.0538467532
 H        -7.4077589369       -2.3043609102       -1.3513696529
 H        -7.2405908407       -1.9802315129       -3.0061502240
 H        -8.8091802842       -1.7260116122       -2.1742628954
 H        -4.7267738951       -1.2086436460       -2.2793767892
 H        -5.3466037730       -1.7451153046       -0.7009660711
 H        -4.0913634279       -0.6476267435       -0.7499858033
 H        -6.8649904110        1.6274457153        0.1748011630
 H        -5.4213166213        1.0407089912        0.7017477942
 H        -6.8249778550       -0.0276446772        0.7255877828
 H        -5.7606762633        5.6526742354       -7.2675441250
 H        -6.7787438675        4.3604499846       -6.9359490833
 H        -5.1597307295        4.1071679525       -7.3175052095
 H        -3.2318046120        5.0758268555       -5.1219088497
 H        -4.1906121495        5.7524416465       -3.6990682145
 H        -4.1501337850        6.6584949385       -5.2016912301
 H       -12.3414623419        6.0918696103       -2.9791806568
 H       -12.4053184890        5.8414179689       -1.2980043251
 H       -11.8663965390        4.5585163922       -2.3832266989
 H       -10.9161102816        8.0059875953       -2.9965453393
 H        -9.4039558882        8.0020310759       -2.0366699524
 H       -10.9160563511        7.8624411871       -1.2567498484
 H        -8.9745871769        5.2983251219        6.2549555892
 H       -10.5349272512        5.8317371254        5.4082013323
 H        -9.2202989411        6.9933593231        5.4466833208
 H        -6.8359233871        5.5202994356        4.9263991533
 H        -7.1488644742        6.2286337029        3.2694121767
 H        -7.0536096998        4.5724092061        3.3698225561
 H       -14.6382088315       -0.4896582699        5.0185444876
 H       -15.0894549790       -0.1367665084        3.3261323489
 H       -14.7431493649        1.2133661561        4.4463844236
 H       -12.6611659933       -1.8206099001        3.6580316841
 H       -12.2244173126       -1.2782530127        5.1967229408
 H       -11.1197743985       -1.0242267248        3.8176306049
 H       -13.8150055493        5.5878312808        3.2510078508
 H       -14.9392499687        4.7305429781        4.1732115925
 H       -15.4550453005        6.3081596227        3.6708988548
 H       -17.3293497166        4.1311381268        2.8126413276
 H       -17.5529188336        4.7272584002        1.2007270788
 H       -17.4791236306        5.9348118194        2.5194991004
 Na       -7.7064510593        3.1573714891       -2.6268895390
