117

 C       -15.8828577580        6.0052152441       -0.5535372486
 C       -15.1931087077        5.9686510046        0.8104532736
 O       -14.0981936208        6.4643640080        0.8244949903
 C       -15.6454761017        5.0271714902        1.9599329433
 C       -15.1527545648        3.6220862055        1.4464239309
 O       -15.5992345450        3.0872980878        0.4328305579
 C       -13.9807107351        2.8806564477        2.1686461842
 C       -13.7947258159        1.4840802068        1.6757289754
 C       -12.5821529294        0.8648846629        2.4236157109
 O       -11.4609495292        0.8526777324        1.9551416421
 C       -12.8448263286        0.4287812448        3.9279152554
 C       -12.2556014694        1.6309958471        4.6932117952
 O       -12.9472756750        2.5430392375        5.1890164659
 C       -10.7672407904        1.7597198905        4.8703042363
 C       -10.3385911189        3.2942713954        4.9756887997
 C        -9.1401691966        3.7370135635        4.1577921957
 O        -8.3516325623        2.9965750215        3.6545919488
 C        -8.8690458955        5.3795283560        4.1607109206
 C        -9.6901679181        6.0452995577        2.9367080193
 O       -10.5212338123        6.9084607811        3.0176135168
 C        -9.4139845499        5.3726209949        1.5171952364
 C       -10.0033098084        6.1674814937        0.3212219371
 C        -9.7003599850        5.5113590170       -1.0136552139
 O        -8.8744709257        4.6202722961       -1.0296273187
 C       -10.3574886049        6.0228006937       -2.3536013465
 C        -9.4946588558        5.4812073612       -3.5678855281
 O        -9.3543691243        4.3333527445       -3.7996435136
 C        -8.9183980725        6.5409543293       -4.5896821400
 C        -7.7073537459        6.0377572449       -5.3306242319
 C        -6.6342661160        5.4039030128       -4.4117764476
 O        -6.6495317601        5.5916170911       -3.1790471959
 C        -5.4967232322        4.5830273408       -5.0964105368
 C        -5.4073104602        3.1744590839       -4.5830555194
 O        -6.3937690896        2.4331292009       -4.6468708911
 C        -4.1053943753        2.5524917724       -4.0317702461
 C        -4.3851275588        1.2192620976       -3.3203397534
 C        -5.3693803901        1.4653013825       -2.1421640246
 O        -5.6829892966        2.5655834212       -1.7470267128
 C        -5.9264839024        0.1845083168       -1.3891066820
 C        -7.3545472524       -0.0446127280       -1.9500119997
 O        -8.1818238658        0.8612374547       -2.1147572563
 C        -7.7025385623       -1.4272018951       -2.2620165438
 C        -4.9281389671       -1.0800752363       -1.2848788290
 C        -6.2204535731        0.5603977186        0.0902612159
 C        -5.4915297286        4.4801708958       -6.6808550861
 C        -4.1743858632        5.4748311672       -4.8613931427
 C       -11.7679625355        5.4032094757       -2.4982157588
 C       -10.4723061265        7.5363203338       -2.3448280026
 C        -9.3265750483        6.0912846601        5.5090781806
 C        -7.3580476286        5.5832187472        3.9699397881
 C       -14.3466842539        0.3409483899        4.2159999572
 C       -12.2656088200       -0.9964918410        4.2352691640
 C       -14.8993755624        5.5150263424        3.2543063851
 C       -17.1970830359        4.9095253968        2.2226178625
 H       -15.4102264377        6.7618075041       -1.2795460990
 H       -16.9019730869        6.1521132152       -0.5990209004
 H       -15.7891660995        4.9672134520       -0.9540848288
 H       -14.0957955527        2.8247377880        3.2750421343
 H       -13.1027507071        3.4438377207        1.9203831070
 H       -13.6263602807        1.4048669976        0.5652222282
 H       -14.6523709765        0.8783358719        1.9121218866
 H       -10.3472609775        1.2408979767        3.9901687530
 H       -10.5717730436        1.2680128974        5.8641379179
 H       -10.2064678680        3.5422370335        6.0360827476
 H       -11.1227979507        3.9135293746        4.6621802372
 H       -10.0127506350        4.4064888554        1.3623944164
 H        -8.3656021346        5.2252136955        1.2896004866
 H        -9.5948965226        7.0996453887        0.3597699759
 H       -11.0628693805        6.3905437115        0.4508299450
 H        -8.5738605064        7.4488058775       -4.1162724925
 H        -9.7338090886        6.8624772584       -5.3027618420
 H        -7.2506482312        6.8732937195       -5.7706695452
 H        -7.9851410506        5.3793835501       -6.2305956420
 H        -3.5368490190        3.1933252016       -3.4367301737
 H        -3.4681304605        2.4221468274       -4.8983624131
 H        -3.3931879667        0.8092822447       -2.9112725565
 H        -4.9359463331        0.6557353124       -3.9959413665
 H        -7.8366127996       -2.1596119003       -1.3746830043
 H        -6.9021239047       -1.8493982332       -2.8647064486
 H        -8.5872471674       -1.4405894900       -2.8576498065
 H        -4.7456951358       -1.4811930442       -2.2742122671
 H        -5.4327312715       -1.8226693640       -0.7255231280
 H        -4.0612876936       -0.7588344420       -0.6594329044
 H        -6.8200033664        1.4934562596        0.2164437821
 H        -5.2426997009        0.6653643241        0.7247787652
 H        -6.7974733307       -0.2507241991        0.4746335677
 H        -5.8643154676        5.3658974705       -7.1633621147
 H        -6.1897917594        3.8031567063       -7.1056939175
 H        -4.5151102046        4.2795486392       -7.0507820639
 H        -3.4315172694        5.1216438811       -5.5315082724
 H        -3.7637154767        5.5340410648       -3.9152668047
 H        -4.4885424255        6.4948770526       -5.1066968589
 H       -12.3702274281        5.8864550702       -3.3166238009
 H       -12.3416314825        5.4629825625       -1.5749815059
 H       -11.7191637671        4.3405339592       -2.7488559138
 H       -10.7945477038        7.7475147649       -3.3689379652
 H        -9.4729863666        7.9058996731       -2.0891389334
 H       -11.1913636872        8.0291808560       -1.6620841983
 H        -8.9045564049        5.5069256374        6.3140017883
 H       -10.4161759772        6.1763696400        5.5092735402
 H        -8.9389979531        7.0379833616        5.5824836073
 H        -6.9117651685        4.9416292026        4.7158536906
 H        -7.1185789819        6.6802522444        4.1220008119
 H        -7.0557895806        5.3448414094        2.9260961955
 H       -14.3805915572        0.1135446742        5.2837883078
 H       -14.7131182879       -0.4879153765        3.7241696607
 H       -14.9149713309        1.2225053862        3.9484052533
 H       -12.5281376927       -1.8129921268        3.5192240015
 H       -12.6135145910       -1.2915252782        5.2679603873
 H       -11.1596721647       -0.9624155301        4.1922543829
 H       -13.7821248211        5.4537192237        3.2776062067
 H       -15.1039205807        4.9484464307        4.1177334061
 H       -15.1511665023        6.5207179722        3.5465283534
 H       -17.3681135598        4.1239866676        2.9681250901
 H       -17.6550354002        4.7038765952        1.2149199520
 H       -17.5985610925        5.7840182417        2.5763403520
 Na       -7.8149198449        3.0446973706       -2.5509322024
