117

 C       -15.9096926641        6.6657927384       -0.5337268085
 C       -15.0062808140        5.9546338837        0.5177073143
 O       -13.7701968048        6.1077189619        0.5076862096
 C       -15.6335449916        5.2180596615        1.7492401789
 C       -15.2710990234        3.5739059409        1.3769489749
 O       -15.8907715793        2.9774685991        0.5470465339
 C       -14.1348563372        2.9428658092        2.2264629393
 C       -13.8943233616        1.4709162550        1.9171530455
 C       -12.6498210067        0.7647705876        2.6005325783
 O       -11.7333562880        0.4503501342        1.8683354113
 C       -12.6046791203        0.5727146209        4.1570417248
 C       -12.1691079434        1.9806766955        4.7350106248
 O       -12.9414136546        2.7848076445        5.1190488521
 C       -10.5882548795        2.2247766593        4.6571975486
 C       -10.2578028580        3.6410109860        5.1352585340
 C        -9.0917313028        4.1899584694        4.3084022761
 O        -8.3087470942        3.4387667361        3.7335291160
 C        -8.9850890058        5.7172485285        4.0792740996
 C        -9.9531072840        5.8973092255        2.8978266770
 O       -10.9763548000        6.5507747888        3.1113175011
 C        -9.7411532585        5.2163900628        1.6074621424
 C       -10.2186183347        5.9486555033        0.3749211032
 C        -9.5332323681        5.5175331714       -0.9466051965
 O        -8.5695187329        4.7624539800       -0.8859803063
 C       -10.2276891235        5.8674142481       -2.2977849881
 C        -9.4253393872        5.5389554693       -3.5519033753
 O        -9.4368316550        4.3692342006       -3.9666936861
 C        -8.6560545731        6.6013991374       -4.2548872797
 C        -7.4989188662        6.0684897152       -5.2205873805
 C        -6.5335688701        5.1493416858       -4.4910590480
 O        -6.5345652722        5.1293823234       -3.2698302375
 C        -5.3226904028        4.4126875845       -5.2447756774
 C        -5.3397931949        2.8993177898       -4.4941137193
 O        -6.3719629398        2.2887661346       -4.4995929786
 C        -3.9909830395        2.1572886856       -4.0564183947
 C        -4.4055199238        0.9016055174       -3.2608880960
 C        -5.2660759734        1.2322560735       -2.0198146566
 O        -5.5073428984        2.3862715116       -1.7060875722
 C        -6.0668736799        0.0287991181       -1.3708035672
 C        -7.5252671211       -0.0172435921       -1.9478959314
 O        -8.1703150737        0.9936891668       -2.0932871196
 C        -8.1914880325       -1.2602010683       -2.5708920858
 C        -5.3940828427       -1.3345364854       -1.6728693264
 C        -6.4041206908        0.4343668616        0.1140600702
 C        -5.5796752321        4.1670882275       -6.7208829281
 C        -4.0947618912        5.2719283996       -5.0051176023
 C       -11.4415206755        4.8364850767       -2.3602390105
 C       -10.7780628307        7.3107099081       -2.2650687693
 C        -9.4180448222        6.4416800015        5.3446792185
 C        -7.5447097285        6.0725595660        3.6167045590
 C       -14.0389399636        0.2155761804        4.5960886964
 C       -11.5248913238       -0.5299044941        4.5061425015
 C       -14.9796079286        5.7684716965        3.0201448976
 C       -17.1267695508        5.2949960693        1.9513172486
 H       -15.4201240351        6.9794476406       -1.3993895315
 H       -16.3777414149        7.6116790874       -0.0650635610
 H       -16.8224953152        6.1073911197       -0.7720458391
 H       -14.3259446319        3.1189875666        3.2551055381
 H       -13.3076923461        3.6585557868        1.9996830036
 H       -13.6789822267        1.4191089462        0.8280387145
 H       -14.8051610151        0.9357626795        2.1663124475
 H       -10.1734244032        1.9761407800        3.6462058463
 H       -10.1741825669        1.4743070108        5.3480673191
 H        -9.9858732569        3.6598330365        6.1267399714
 H       -11.1163480137        4.3266369793        4.9641161991
 H       -10.2776662044        4.2095163078        1.6290937062
 H        -8.6552353951        4.9721029790        1.3509429265
 H       -10.0330197940        6.9961439642        0.5286821247
 H       -11.2461098024        5.7938227776        0.3776056530
 H        -8.1745479662        7.3173701312       -3.5612953306
 H        -9.3323609290        7.2593062294       -4.8282994569
 H        -6.9629301593        6.9474980591       -5.7473131499
 H        -7.8095336367        5.5480360901       -6.0733273166
 H        -3.2566149729        2.7389022945       -3.5368738283
 H        -3.4070415643        1.8563072141       -4.8906861063
 H        -3.5207855783        0.4154265481       -2.9693236585
 H        -5.0495300630        0.2684880777       -3.9567092387
 H        -8.3131430299       -2.1148021215       -1.9833724156
 H        -7.4975057701       -1.6281002486       -3.3671723875
 H        -9.1992204833       -0.9539376999       -3.0222365468
 H        -5.1724493847       -1.4241931656       -2.7164639640
 H        -6.0040818991       -2.1802368976       -1.3070581508
 H        -4.4736578772       -1.2240607121       -1.1758939267
 H        -6.9134851880        1.4187765270        0.0373263792
 H        -5.5480410341        0.4684312389        0.7470182569
 H        -7.1310706346       -0.3112903153        0.6416536220
 H        -5.4850316740        5.0470054522       -7.3345318775
 H        -6.5230724042        3.6499252601       -6.8972643065
 H        -4.8389245939        3.4720334459       -7.0526699236
 H        -3.3307183748        5.0952419838       -5.7293644605
 H        -3.6453803153        5.0041546103       -4.0530675960
 H        -4.2921774954        6.3128789910       -5.0691642246
 H       -12.1237013788        4.9961845235       -3.1911990746
 H       -12.0087312848        4.9234610450       -1.4203364865
 H       -11.1818880883        3.7883245475       -2.4168960856
 H       -11.2953361296        7.4799008375       -3.2384886361
 H       -10.0212034017        8.1282824865       -2.1677455056
 H       -11.5321372129        7.3922771469       -1.5274633729
 H        -8.7019526251        6.3597678493        6.1413092221
 H       -10.3298195826        6.1011809693        5.6931513693
 H        -9.4462502547        7.5135636931        5.0644638481
 H        -6.7591356501        5.8657511131        4.4002622748
 H        -7.4701868698        7.1418342319        3.3556125954
 H        -7.2665940241        5.3694119415        2.8044100853
 H       -14.1514856077       -0.1798224731        5.5783082630
 H       -14.3397861549       -0.4467163952        3.7779949758
 H       -14.5755441459        1.1077403613        4.5353764193
 H       -12.0448072943       -1.5133642889        4.3068434433
 H       -11.2476098718       -0.4260047649        5.5653577564
 H       -10.5871347880       -0.4335571652        3.9231193178
 H       -13.9274565348        5.8119588916        3.1074490118
 H       -15.2973522348        5.2586620459        3.9309244405
 H       -15.1874053412        6.7944405958        3.2444817183
 H       -17.4169810856        4.7390972627        2.8328035091
 H       -17.7228462479        4.9976326419        1.1590816633
 H       -17.3703220722        6.3716806095        2.2155777206
 Na       -7.7510104250        3.1496386452       -2.3955887136
