117

 C       -15.1352769567        7.0100573617       -0.4104984120
 C       -14.6631740362        5.7617131475        0.2940627842
 O       -13.7198063937        5.1688069215       -0.1452398956
 C       -15.3924376893        5.2767352558        1.5492358363
 C       -15.3691044546        3.6614154622        1.4941296203
 O       -16.2240415694        2.9835375217        0.9926697947
 C       -14.0547583376        3.1280783419        2.1030341708
 C       -14.1441317310        1.5474187199        2.2684431918
 C       -12.7821535168        0.9480768589        2.7231746355
 O       -11.9007381036        0.6780634154        1.9240628889
 C       -12.4486751886        0.7222203123        4.2697151942
 C       -11.9762568894        2.1547339218        4.7636446188
 O       -12.7996077058        2.9702015098        5.1530922845
 C       -10.4735694135        2.4627476993        4.5804580473
 C       -10.2350435944        3.8973473884        5.0749222828
 C        -8.9448662789        4.5645728485        4.5257108631
 O        -7.9715181769        3.8996356116        4.1975715849
 C        -9.1423608925        6.0728363735        4.1036962636
 C       -10.0845923253        6.1338841360        2.8672313093
 O       -11.1366890305        6.7817730555        2.9012434706
 C        -9.7789508494        5.3327087134        1.5634971768
 C       -10.3531120931        5.9935563132        0.2318049156
 C        -9.8952699767        5.2401025180       -0.9268861090
 O        -9.0777504763        4.3489880855       -0.7136318476
 C       -10.4197452053        5.4691900723       -2.3496388626
 C        -9.1826961783        5.2598097774       -3.3771428976
 O        -8.9411576654        4.1777706868       -3.8051817170
 C        -8.2852614383        6.3895662291       -3.7676897669
 C        -7.3450545729        5.9733441258       -4.8581640573
 C        -6.0791341117        5.2131278243       -4.3772981815
 O        -5.6921738565        5.3223226307       -3.2024857467
 C        -5.3428810541        4.2037628942       -5.2745408753
 C        -5.4570745423        2.7839029533       -4.5804248855
 O        -6.5408930322        2.2244484728       -4.5577439733
 C        -4.2132217191        2.0460409248       -4.0363918373
 C        -4.6553496567        0.8046150631       -3.3027799275
 C        -5.5061399485        1.0794571314       -2.0362858588
 O        -5.5060949587        2.1523019511       -1.4463432820
 C        -6.3981434817       -0.0934525547       -1.5404870293
 C        -7.8205302993        0.0182832272       -2.2923920798
 O        -8.3465479734        1.0677796533       -2.5969168520
 C        -8.6628990929       -1.2420060271       -2.4012304068
 C        -5.7116723799       -1.5021841276       -1.8109713544
 C        -6.7215989191       -0.1617773447        0.0305224104
 C        -5.8793467031        4.0207449271       -6.7373177156
 C        -3.8579044268        4.6559645048       -5.4565511318
 C       -11.5172431822        4.3690345152       -2.5249472004
 C       -11.1394790868        6.8344091033       -2.3956095133
 C        -9.7997576614        6.9868003528        5.2002756653
 C        -7.8133682817        6.6722962686        3.6176615788
 C       -13.6702355693        0.2675254023        5.0637002597
 C       -11.2959233999       -0.3635094532        4.5434166351
 C       -14.6127229763        6.0229090461        2.6085087240
 C       -16.9500401291        5.7221776942        1.5011104028
 H       -14.5170628503        7.3290033695       -1.1933755849
 H       -15.3007720574        7.8445329417        0.2182539915
 H       -16.1112674725        6.8124916109       -0.8722086372
 H       -13.8713347273        3.6256208915        3.0849179420
 H       -13.2134045334        3.4106867386        1.4978212063
 H       -14.4812808457        1.0410503819        1.3464682035
 H       -14.9034530602        1.2610119437        2.9681197591
 H       -10.3067481153        2.3716407122        3.5296824801
 H        -9.8599329534        1.7028715545        5.0400882947
 H       -10.0544704414        3.9506031466        6.2247109956
 H       -11.0592970087        4.5458263722        4.7965203481
 H       -10.1322397646        4.2681976651        1.6828479500
 H        -8.7452677774        5.1680430385        1.4017955138
 H       -10.0386062434        7.0633222176        0.1867174811
 H       -11.5111720181        5.9551566218        0.4545914621
 H        -7.6239842974        6.6087102174       -2.9356172166
 H        -8.7789016704        7.3361927430       -3.9972951759
 H        -6.9045587201        6.8115508858       -5.3346548380
 H        -7.8503992591        5.4129952933       -5.7475209210
 H        -3.5720504393        2.6638055152       -3.3903875103
 H        -3.5696482083        1.6925022518       -4.8954388069
 H        -3.7233075354        0.1541404479       -3.0268204500
 H        -5.0901895230        0.1767796199       -4.0085907315
 H        -8.7233800688       -1.6803139775       -1.3941169107
 H        -8.2203015888       -1.9760806648       -3.0284038841
 H        -9.7100433340       -1.0839577176       -2.7600128035
 H        -5.6760822900       -1.6611972086       -2.9053894720
 H        -6.2026665464       -2.3362461781       -1.3134358657
 H        -4.6710291975       -1.4873600119       -1.3692378679
 H        -7.3865820229        0.6521020367        0.3625571594
 H        -5.7336692047        0.0609529612        0.5852838939
 H        -7.1482081872       -1.1329425404        0.2983326220
 H        -6.1264258250        4.9809770555       -7.2364839974
 H        -6.7146878468        3.2772441408       -6.7138031984
 H        -4.9935300150        3.6163499735       -7.2650056850
 H        -3.3357408980        4.1416212324       -6.2472925560
 H        -3.2476338116        4.6094151608       -4.6253641254
 H        -3.7661615091        5.7568546448       -5.6638587868
 H       -11.9900049838        4.4757834368       -3.5366039342
 H       -12.3685055763        4.3836296106       -1.8542930169
 H       -11.0669977679        3.3916080546       -2.4977857533
 H       -11.6082117603        7.0712594721       -3.3921537615
 H       -10.4887711744        7.7434126177       -2.1970160187
 H       -11.8822094309        6.8139497705       -1.6236980534
 H        -9.2695516349        7.1385393738        6.1347793443
 H       -10.7442578237        6.6087080829        5.4966674731
 H       -10.0660724223        7.9011907717        4.7721019013
 H        -7.6000577858        7.5720410150        4.1467410917
 H        -7.8535397352        7.0117576253        2.5275735085
 H        -6.9311797477        6.0046843923        3.6514710657
 H       -13.3529457289       -0.3801420802        5.8974909351
 H       -14.2202305436       -0.3997856149        4.4784826836
 H       -14.2510636129        1.1295954575        5.3938743893
 H       -11.7731929947       -1.3771035787        4.4703035217
 H       -10.8429097573       -0.2707100293        5.5781439939
 H       -10.5951616583       -0.2308099373        3.7136757978
 H       -13.4990540139        5.8016671947        2.6612330122
 H       -14.8476702414        5.9640152872        3.6203285804
 H       -14.6594351973        7.0868688181        2.4995360085
 H       -17.5396344891        5.2660207486        2.3370287016
 H       -17.4530348936        5.3076351211        0.5835512134
 H       -17.1472578857        6.7625751595        1.5031798185
 Na       -7.5553158914        3.2944597398       -2.1288575768
