117

 C       -14.4941033419        6.8851496494       -0.5837491661
 C       -14.2480840986        5.5573059776        0.0151002115
 O       -13.3044722560        4.7839458476       -0.2764128025
 C       -15.1880927571        5.3863922882        1.2728412199
 C       -15.2325717694        3.8138972961        1.6082165327
 O       -16.2861348717        3.2444335381        1.7907935192
 C       -13.8808187834        3.1084809541        1.9097515376
 C       -14.1226878823        1.6939217434        2.4913303744
 C       -12.7529702855        1.1026059900        2.8129924718
 O       -11.8819262517        1.0502399230        1.9599491752
 C       -12.3254487408        0.8802124356        4.3044360339
 C       -11.9751550951        2.3323009456        4.8434156319
 O       -12.7751056240        2.9446793531        5.5198554499
 C       -10.6010360608        2.8835773512        4.4682416084
 C       -10.3700447993        4.2334028861        5.2098745646
 C        -9.1765200950        4.9799031699        4.5614868865
 O        -8.0956496860        4.4801112007        4.4452746905
 C        -9.3399354265        6.4515652200        4.0517745457
 C       -10.1730979494        6.4353946309        2.7190219175
 O       -11.2645548019        6.9326804000        2.6279644763
 C        -9.5338238954        5.5913652817        1.6338754179
 C       -10.4023185923        5.3623268789        0.3394038409
 C        -9.6750716897        4.7553956248       -0.8910777781
 O        -8.6775439361        4.0503120447       -0.7503950951
 C       -10.1970383777        5.1865879704       -2.3737819727
 C        -9.0735901799        5.1967924313       -3.4440336377
 O        -8.8147155866        4.1453934627       -4.0144554738
 C        -8.3353182359        6.4952262065       -3.7421283125
 C        -7.1494425781        6.2175540993       -4.7372151424
 C        -6.2801494415        5.0190161959       -4.2107768560
 O        -6.1122130661        4.9898458333       -3.0028289309
 C        -5.4440596339        4.1099355082       -5.1853704161
 C        -5.4999523723        2.6409871164       -4.5563216817
 O        -6.5115534797        2.0142625193       -4.7343452705
 C        -4.2582206971        1.9751191787       -3.8463958487
 C        -4.6950419001        0.5884221054       -3.2155962032
 C        -5.6902230985        0.8011717156       -2.0944628736
 O        -5.7501282170        1.8870891596       -1.5697810003
 C        -6.5906739828       -0.3500572914       -1.6005888977
 C        -8.1203505636       -0.1984873663       -2.0822507532
 O        -8.6631995694        0.8839995420       -2.2495438471
 C        -9.0178153673       -1.3491241770       -2.4381656662
 C        -6.0597344682       -1.6579533419       -2.1452706494
 C        -6.7558427141       -0.1762398855       -0.0959670461
 C        -6.0213062793        3.9812976592       -6.5913549615
 C        -4.0508459359        4.6794228145       -5.3357519502
 C       -11.2975632592        4.1013288630       -2.7375655106
 C       -10.8052456213        6.6170055941       -2.4275005062
 C       -10.1733173455        7.2914072336        5.0787023352
 C        -7.9877394590        7.0997928820        3.7554925083
 C       -13.5098323715        0.3767770498        5.1280951565
 C       -11.1394466573       -0.0866218194        4.4016062822
 C       -14.5375694800        6.1571398887        2.4492413009
 C       -16.6058796295        5.8958570863        1.1376580741
 H       -13.7275789195        7.2825152735       -1.2438071671
 H       -14.5161341187        7.6018098425        0.2326299990
 H       -15.3630352223        6.9413882165       -1.1170970294
 H       -13.3673421345        3.7609204833        2.6322755181
 H       -13.2384526845        2.9952687111        1.0407067662
 H       -14.6298536188        1.0788769755        1.7070386437
 H       -14.8369851893        1.7283883516        3.2832973442
 H       -10.5999350616        2.8801624532        3.3916979200
 H        -9.9158952353        2.1417512311        4.7898177968
 H       -10.2292302717        3.9966966667        6.2699979308
 H       -11.2928459769        4.9327662297        5.1137457966
 H        -9.2820368281        4.6023662611        1.9757443340
 H        -8.5905477388        5.9920112741        1.2710211408
 H       -10.9643482553        6.3880533439        0.0710925205
 H       -11.3198835763        4.7070101842        0.5227876268
 H        -7.9832604344        6.7950890408       -2.7551259715
 H        -8.9181512260        7.3048786279       -4.1870431102
 H        -6.4757336767        7.1393643400       -4.7841493503
 H        -7.5200061319        6.0836234420       -5.6855860086
 H        -3.9414780255        2.6403228043       -3.0124583555
 H        -3.4470204947        1.8381179428       -4.6398647636
 H        -3.8759809217       -0.0662469810       -2.9604018203
 H        -5.1087385638       -0.0660842009       -4.0344728093
 H       -10.0392200448       -1.3069393992       -2.1289501044
 H        -8.5885240434       -2.3605486565       -2.1886431169
 H        -9.0200530735       -1.3383420332       -3.5297271558
 H        -6.1757238497       -1.8471805245       -3.2236255136
 H        -6.7271114313       -2.4403836955       -1.6932705955
 H        -5.0411914463       -1.8980715958       -1.9132660258
 H        -7.2804825733        0.7914794867        0.1701195082
 H        -5.7900795637       -0.1356628901        0.3621856249
 H        -7.3685954589       -1.0205519299        0.3554642852
 H        -6.0926012225        5.0213365090       -6.9560245262
 H        -7.0195247711        3.5894652199       -6.4145161214
 H        -5.3301801997        3.3472634452       -7.1781272560
 H        -3.4512623678        4.2378183537       -6.0936449776
 H        -3.3764861581        4.6411470711       -4.4445996770
 H        -4.1208458624        5.6880988050       -5.5713413744
 H       -11.6222347117        4.2865779564       -3.7486362989
 H       -12.2049159894        4.1344843849       -2.1235662675
 H       -10.9245150341        3.0755237628       -2.7472354253
 H       -11.2234898801        6.8802423379       -3.3912951839
 H       -10.1358267485        7.3415491647       -1.9775501029
 H       -11.7277720369        6.6391857052       -1.8180273786
 H        -9.7295375402        7.1749811179        6.0041198236
 H       -11.2030171986        7.0819349145        5.1408373457
 H       -10.0176808132        8.3613942289        5.0072237189
 H        -7.1827921575        6.6373937450        4.3945393889
 H        -8.0210556704        8.1879754955        3.8353501071
 H        -7.6335183858        7.0068493025        2.7253519177
 H       -13.0796668199        0.2879664626        6.0983619488
 H       -14.0343857212       -0.5664417633        4.8587800207
 H       -14.2481157636        1.1299538103        5.1454851531
 H       -11.4258649781       -1.0897280685        4.0080714807
 H       -10.8847472392       -0.0986160003        5.4607203215
 H       -10.3082469150        0.2777880392        3.7622333326
 H       -13.5149448400        6.2497188530        2.4476919249
 H       -14.5950222136        5.6466870599        3.4529377197
 H       -14.8311110674        7.1914079190        2.6452732846
 H       -17.1066561736        5.4417772044        1.9767258085
 H       -17.0920712146        5.6196019608        0.2485379126
 H       -16.8170543052        7.0071622540        1.2188605428
 Na       -7.6161646587        3.0022960817       -2.4196334422
