117

 C       -15.6517917276        6.8625701201       -0.4257661588
 C       -14.7662163213        5.9660864218        0.3996089191
 O       -13.6927147585        5.5946778520       -0.0703975151
 C       -15.4648760885        5.2039750067        1.6355667597
 C       -15.2054729757        3.6509913488        1.4965910103
 O       -15.9380579161        2.9156071142        0.8987071883
 C       -14.0641264518        3.0131390164        2.2836893043
 C       -14.0322976526        1.5568934196        2.0623807522
 C       -12.8300039244        0.8682951160        2.6196021829
 O       -11.9649069120        0.5448282279        1.8277562669
 C       -12.5544679113        0.6212786432        4.1747826133
 C       -12.0648200526        1.9987146235        4.6897551160
 O       -12.8189252455        2.8502547572        5.0681059535
 C       -10.5402418954        2.3044506218        4.8271738790
 C       -10.3202489556        3.7940692532        4.9985748164
 C        -9.0597606879        4.4258882419        4.2710916803
 O        -8.0904108800        3.7803167378        3.8966125466
 C        -9.0279913869        5.9882874647        4.0571686705
 C       -10.0866900444        6.0473375544        2.8616360067
 O       -11.2063975912        6.5634707501        2.9738586733
 C        -9.7432646180        5.3171314408        1.5778203471
 C       -10.1399618278        6.1097529277        0.2565120051
 C        -9.6062092151        5.3981459892       -0.9460961930
 O        -8.6519102706        4.6062341227       -0.9362084603
 C       -10.3836389582        5.6290050592       -2.3106755977
 C        -9.3522473725        5.2491665319       -3.4117757533
 O        -9.1105803768        4.1166530260       -3.7290595172
 C        -8.5337883620        6.4655701929       -3.8909194354
 C        -7.4736780608        5.9850992681       -4.8680378279
 C        -6.3513389860        5.1352103481       -4.2419349347
 O        -6.1163512781        5.1814043552       -3.0155620629
 C        -5.4633926216        4.2676465339       -5.1662897345
 C        -5.5052269318        2.8385735170       -4.5761290688
 O        -6.4928230496        2.1469437723       -4.5986825541
 C        -4.2023533131        2.2747063835       -3.9223601679
 C        -4.4623033390        0.9355898818       -3.3017433395
 C        -5.2976219603        1.1071911622       -2.0597865339
 O        -5.4432406088        2.2168596391       -1.6247914819
 C        -6.2748974576       -0.1026322949       -1.4351005702
 C        -7.7317956765       -0.0279460979       -2.1988952226
 O        -8.2514310813        1.0730563702       -2.3099894028
 C        -8.4702070371       -1.3468863270       -2.5646346394
 C        -5.5831981343       -1.4511349233       -1.6940409680
 C        -6.4807369525        0.3715569813        0.0580288981
 C        -5.8142667291        4.2618672147       -6.6478031500
 C        -4.0481214061        4.8611385927       -5.2278863500
 C       -11.6883318896        4.7089783667       -2.3592200551
 C       -10.8462507995        7.1216955939       -2.3943527313
 C        -9.4695457548        6.7937013820        5.3068489743
 C        -7.6347838614        6.3566678620        3.4920889627
 C       -13.8897813942        0.3418694014        4.9594064431
 C       -11.5886205642       -0.6118369588        4.2961105429
 C       -14.9149939719        5.8228749846        2.9364846275
 C       -17.0022286794        5.4059039460        1.7096162066
 H       -15.0785381993        7.3407077734       -1.1773244224
 H       -16.2825836320        7.6320652948        0.0982649344
 H       -16.4020053212        6.2559926795       -1.0101102344
 H       -14.1937632980        3.2584163150        3.3567661147
 H       -13.1255389762        3.5104821803        2.0331203612
 H       -13.9795648983        1.4024778046        0.9294762324
 H       -14.9015889094        1.0749310031        2.3951113129
 H        -9.9065924398        1.8381233776        4.0585998940
 H       -10.2642169315        1.8109826040        5.7770955567
 H       -10.2488970645        4.0563894970        6.0623502776
 H       -11.1216779412        4.3788380652        4.5509109854
 H       -10.2039253991        4.3468099901        1.6805351068
 H        -8.7456894228        5.0796648989        1.4352753223
 H        -9.6410076667        7.0710550052        0.3324737313
 H       -11.2539087136        6.2086901189        0.3026515699
 H        -8.0854718030        6.9271027905       -3.0229161896
 H        -9.1105176426        7.2880381510       -4.3589027829
 H        -6.9750333452        6.7119297951       -5.4953656658
 H        -8.0076647200        5.4065844992       -5.6336474673
 H        -3.6381301417        2.9212636683       -3.2327183256
 H        -3.4833067687        2.1716560814       -4.7951556117
 H        -3.4828047212        0.5034222641       -2.9286994950
 H        -4.8741949928        0.2289972276       -4.0193765975
 H        -8.1408884130       -2.2497487666       -2.1363321876
 H        -8.3452183655       -1.4913135752       -3.6235654244
 H        -9.5829297065       -1.2036525025       -2.3999956894
 H        -5.7225704324       -1.6704505384       -2.7427252559
 H        -6.1634462717       -2.1587013951       -1.0943571796
 H        -4.5180584050       -1.4429877315       -1.4494652040
 H        -6.7934623620        1.3600223204        0.1209649417
 H        -5.5318672011        0.2542721094        0.5546788532
 H        -7.1610766912       -0.2746182419        0.5952692224
 H        -5.7686177395        5.3221961063       -6.9885916068
 H        -6.7986957117        3.7689151359       -6.8342281000
 H        -5.1253179177        3.6504562093       -7.2671027114
 H        -3.2501524953        4.1437858554       -5.5084827566
 H        -3.7115338559        5.3332619428       -4.3046371932
 H        -3.9114329817        5.6278174484       -6.0610123986
 H       -12.2276731211        4.8195612914       -3.3186051342
 H       -12.4106677355        4.8955388212       -1.5706636218
 H       -11.4523202184        3.6751712323       -2.3212625124
 H       -11.1159442705        7.3820470058       -3.4189414234
 H       -10.0741311758        7.8758733828       -2.2011315906
 H       -11.6352307850        7.2565747919       -1.7624221818
 H        -8.8381820703        6.3928557594        6.1650572267
 H       -10.4516682600        6.5765831608        5.7003030189
 H        -9.3462406284        7.9120545799        5.1956405565
 H        -7.1953683151        7.1926463879        3.9299937927
 H        -7.7163096899        6.6677643357        2.4326871935
 H        -6.9590907283        5.5250669368        3.5812470040
 H       -13.5388798883        0.4179431398        6.0278918715
 H       -14.2961427617       -0.6619128453        4.7494505166
 H       -14.5579787739        1.1878007856        4.9321953249
 H       -12.0181003982       -1.4167605218        3.7170708800
 H       -11.5014364988       -0.8954014716        5.3157772933
 H       -10.6495091247       -0.3214037667        3.9584167313
 H       -13.8015946412        5.9732548235        3.0620069349
 H       -15.1839552181        5.3253357073        3.8601236268
 H       -15.2245768303        6.8436760795        3.1402853203
 H       -17.4231605522        4.9391614689        2.6060861290
 H       -17.4758599700        4.8158896782        0.9470664215
 H       -17.3333902979        6.4400695824        1.6332601533
 Na       -7.3507165791        3.2628104053       -2.4337890389
