117

 C       -14.5996794359        6.9410683039       -0.6043000379
 C       -14.2772940940        5.6546173666        0.1310949388
 O       -13.4171779108        4.9209617988       -0.3530728747
 C       -15.1984126261        5.2560946200        1.3774704758
 C       -15.2306619505        3.7654053782        1.7105292104
 O       -16.3179370011        3.1911465300        1.6216212809
 C       -13.9321437370        3.1347006644        1.9840189430
 C       -14.1598502238        1.6321734317        2.4379722672
 C       -12.7599546816        1.0998369887        2.7815982331
 O       -11.9058101075        1.0582620487        1.9047242109
 C       -12.3911742427        0.8504474069        4.3438376996
 C       -11.9723323017        2.3268270737        4.8058965416
 O       -12.7655994157        2.9534194810        5.4063448370
 C       -10.5547663842        2.9050683046        4.4643837500
 C       -10.3286941124        4.2290766376        5.2423357955
 C        -9.1104415242        4.9327780313        4.6262219335
 O        -8.0742096162        4.3318152200        4.4212098613
 C        -9.2800346865        6.3780642207        4.1460043618
 C       -10.2468647898        6.3482372874        2.8355516505
 O       -11.2381718011        7.0534484093        2.8137306909
 C        -9.6570118563        5.4798871569        1.5831735096
 C       -10.4847697494        5.4258217017        0.3192415819
 C        -9.7843627487        4.8995997455       -0.9167269938
 O        -8.8708768887        4.0511174788       -0.7733482879
 C       -10.2986941835        5.2192803125       -2.3987649928
 C        -9.0395370600        5.1237760089       -3.4463742176
 O        -8.7501052534        4.1442397616       -4.0582651049
 C        -8.2450756123        6.3899052054       -3.7617813888
 C        -7.1138299394        6.1166645239       -4.8498476325
 C        -6.1869327098        5.0769101439       -4.2412176059
 O        -6.0331429175        4.9900983977       -3.0055244632
 C        -5.3777404280        4.1606391442       -5.2386940595
 C        -5.5167737980        2.7309349685       -4.5761679005
 O        -6.5862283809        2.1931013268       -4.5164896715
 C        -4.2746435148        2.1167518609       -3.8406521230
 C        -4.6767177851        0.7408000806       -3.3310866109
 C        -5.7066498167        0.9189620220       -2.1917868340
 O        -5.7592880279        1.9945794131       -1.6508240151
 C        -6.6589622634       -0.3435341807       -1.6036757906
 C        -8.1141256243       -0.1696366509       -2.2438120056
 O        -8.5399995361        0.9669645851       -2.2910314751
 C        -9.0158201730       -1.3695030930       -2.4618722891
 C        -6.0595767248       -1.7457811964       -1.9210483394
 C        -6.6716944578       -0.1791790333       -0.0433426993
 C        -6.0171142137        3.9551484432       -6.6416896053
 C        -3.9398918838        4.7150107405       -5.4372479584
 C       -11.3036905133        4.1217659507       -2.7594568769
 C       -10.8651048486        6.6019720355       -2.3811455154
 C       -10.0353078375        7.2132342724        5.2574033300
 C        -7.9963279017        7.0675609521        3.7135513344
 C       -13.5862810775        0.3308268547        5.2139214514
 C       -11.1988922952       -0.2044999419        4.3798664938
 C       -14.4744547086        5.9870255651        2.5646934049
 C       -16.6188005435        5.8012043632        1.1310135081
 H       -13.9496526015        7.0328364549       -1.3926800083
 H       -14.5008452767        7.9156698872       -0.0630214642
 H       -15.5796724524        6.8955618652       -1.1187214241
 H       -13.3533460290        3.7246074097        2.7323792595
 H       -13.4213060961        3.2209521067        1.0320358316
 H       -14.7133557969        0.9927055609        1.6810273631
 H       -14.8377731983        1.6425251507        3.2360687340
 H       -10.6480442532        3.0205223133        3.3781158037
 H        -9.7577873023        2.1872988608        4.6433625652
 H        -9.9889073653        3.9191800187        6.2875866982
 H       -11.1735267798        4.8855736381        5.3174798065
 H        -9.3112798789        4.4018016734        1.8348343418
 H        -8.7474632677        5.9602177366        1.2233116092
 H       -10.9728886662        6.4264051476        0.1915589916
 H       -11.3966695110        4.7553386133        0.3899349615
 H        -7.8100937597        6.7506259445       -2.8233417757
 H        -8.8691978296        7.1961362861       -4.1889156368
 H        -6.6236107911        7.0213992603       -5.2060656090
 H        -7.5749380421        5.6132428341       -5.7755579950
 H        -4.0153324145        2.6866927901       -2.9730725155
 H        -3.4229358161        2.0211161398       -4.5535962274
 H        -3.7362538546        0.2921929618       -2.8608448921
 H        -4.7856311014        0.0097322805       -4.0381633532
 H        -9.9065675341       -1.2889925362       -1.8612201258
 H        -8.5455751201       -2.3286548511       -2.2400842477
 H        -9.4209830370       -1.4461047757       -3.5516736182
 H        -6.1085630269       -2.0748637320       -2.9139727615
 H        -6.5945152433       -2.5148002578       -1.3764257289
 H        -5.0462744477       -1.7849384066       -1.5919336121
 H        -6.7811289283        0.8588328474        0.3492358583
 H        -5.7480424497       -0.5539098755        0.3592046514
 H        -7.5754535870       -0.7952677991        0.3609414130
 H        -5.7784784960        4.7972428606       -7.2523219596
 H        -7.0614689284        3.8069667853       -6.5504561727
 H        -5.4708954865        3.0963338625       -6.9835699691
 H        -3.1923731028        4.0690736659       -5.8022817325
 H        -3.4755791835        5.1503630366       -4.6066266966
 H        -4.0219393196        5.5947071840       -6.0961503230
 H       -11.6062899771        4.1351144096       -3.8201070689
 H       -12.2274932322        4.1810018210       -2.2121140765
 H       -10.8813568209        3.1791923416       -2.5921370469
 H       -11.1343220801        6.9815469617       -3.3664267861
 H       -10.1822483353        7.2356575682       -1.8109565689
 H       -11.7663712463        6.6362087305       -1.9041314047
 H        -9.6330698170        7.0713137163        6.2826239910
 H       -11.0725319383        7.1089645816        5.2520046640
 H        -9.8429071397        8.2917067595        5.1752549474
 H        -7.2878588892        6.8074505194        4.4545022287
 H        -8.0544881848        8.1867228055        3.5543091040
 H        -7.5493910790        6.7444932418        2.7587766472
 H       -13.1521810450        0.2730808340        6.2334320666
 H       -13.8586206165       -0.6757705743        4.9779238892
 H       -14.4589128718        0.9413281734        5.1278766586
 H       -11.4015553885       -1.1746903537        3.9155241626
 H       -10.9891074669       -0.2716200869        5.4359352291
 H       -10.4032947462        0.2348138578        3.8552586007
 H       -13.4201601303        6.2542637573        2.5842478645
 H       -14.4944149244        5.5373172402        3.5265586925
 H       -14.9323147329        6.9176688330        2.7385952300
 H       -17.3068595876        5.5554006771        1.9228925335
 H       -16.9806462949        5.4679746462        0.2134667181
 H       -16.6593359655        6.8800234151        1.0324066938
 Na       -7.4814110671        3.0028104579       -2.4400005280
