117

 C       -14.3368409376        6.9575922596       -0.7238829643
 C       -14.2460414477        5.6294208009        0.0579913313
 O       -13.4017244197        4.8309200609       -0.2263969824
 C       -15.1586482007        5.3269560669        1.3037665294
 C       -15.2254755370        3.8538642402        1.7276339706
 O       -16.2732961186        3.3169026999        1.8697825968
 C       -13.9089923397        3.0690996147        1.8902724581
 C       -14.0330679270        1.7326537190        2.4875455473
 C       -12.6757865279        1.2151907928        2.7978765508
 O       -11.8445065690        0.9780372213        1.9636155613
 C       -12.3062314427        0.9461907107        4.3914501770
 C       -11.9505315808        2.2872450659        4.9347049992
 O       -12.7866328482        2.9425165510        5.5892736515
 C       -10.5710151740        2.9162908614        4.5187243397
 C       -10.3874556765        4.3167371837        5.0694374357
 C        -9.1910362656        5.0691718185        4.4775716065
 O        -8.0988903400        4.5215937553        4.4846337942
 C        -9.3763587626        6.5829708617        3.9891381623
 C       -10.1707002392        6.3632713144        2.5749431968
 O       -11.2992478887        6.8153995363        2.3579415913
 C        -9.3886916282        5.5843876466        1.5285616575
 C       -10.3371090155        5.3527678903        0.3054203077
 C        -9.5580920430        4.8542654302       -0.9049972929
 O        -8.6370705906        4.1282322668       -0.7198189221
 C       -10.1690413757        5.2201642419       -2.2796850780
 C        -9.0536704323        5.1849150876       -3.3712547909
 O        -8.8455052535        4.1451807222       -4.0275570422
 C        -8.3378518001        6.4955744619       -3.7461254441
 C        -7.1615302215        6.2584353470       -4.6664550338
 C        -6.2411680755        5.0829093080       -4.1498000651
 O        -6.1878692341        4.8389593359       -2.9778203684
 C        -5.5163354174        4.1012014803       -5.1536259404
 C        -5.4845401226        2.5371911343       -4.6006080280
 O        -6.4596879157        1.8085129912       -4.8156866240
 C        -4.2889498267        1.8653871241       -3.9054605824
 C        -4.7302491393        0.5730045575       -3.2133296908
 C        -5.7440427271        0.7980670018       -2.0999180251
 O        -5.7733328497        1.8424684555       -1.4390065153
 C        -6.6984406919       -0.4104866333       -1.6506024519
 C        -8.1401992045       -0.1180664198       -2.1772020628
 O        -8.6888398424        0.9755029002       -2.1571596134
 C        -8.9470477628       -1.4498545686       -2.4380924387
 C        -6.0734851122       -1.7065226252       -2.1994111653
 C        -6.7853757207       -0.3156928252       -0.1043577043
 C        -6.1667824945        4.0310863442       -6.6199428903
 C        -4.0492256135        4.6468108229       -5.1054702961
 C       -11.2070575146        4.1548225564       -2.6686053018
 C       -10.9061652966        6.6007349069       -2.3389153908
 C       -10.2782374533        7.3988116354        4.9457318546
 C        -7.9678407884        7.1628159890        3.9082910856
 C       -13.5295495542        0.3027338761        5.1461529761
 C       -11.0999918848        0.0101036541        4.4045519360
 C       -14.5116962388        6.1939847042        2.3584894671
 C       -16.5766671928        5.8736795190        1.0471786698
 H       -13.4421214518        7.1611113860       -1.3572250240
 H       -14.4398019664        7.8210488077       -0.1618553025
 H       -15.1559952702        6.9283538269       -1.4404824685
 H       -13.2479093226        3.6675889970        2.4942004447
 H       -13.3997491714        2.9194294339        0.9179491068
 H       -14.5081169073        1.0867529464        1.8009710563
 H       -14.7226566911        1.7736072066        3.4027290486
 H       -10.6282002029        2.8761037596        3.4414421284
 H        -9.8133829661        2.2079967740        4.8495936053
 H       -10.3477611425        4.2694376048        6.1522316696
 H       -11.3005974851        4.9203518649        4.8162050880
 H        -9.0764813027        4.6350315899        1.8228484208
 H        -8.4815549637        6.0864351473        1.1842309861
 H       -10.9452438167        6.2190305169        0.1274209061
 H       -11.1421492201        4.6043759673        0.4981743921
 H        -8.0408900048        7.0518818107       -2.8594934209
 H        -8.9950701444        7.1109281785       -4.3467868543
 H        -6.5778128883        7.1890591962       -4.6566487040
 H        -7.5187522722        6.1038907466       -5.6729963183
 H        -3.9966634175        2.6160994714       -3.0907706472
 H        -3.5244515357        1.6844975763       -4.6769120290
 H        -3.9197956898       -0.0558285751       -2.9426991714
 H        -5.1566698889       -0.1126332136       -4.0399989568
 H       -10.0420347435       -1.3670387375       -2.2142845316
 H        -8.5593070222       -2.2072000103       -1.7702783888
 H        -8.8797339029       -1.8626289136       -3.3828943989
 H        -6.1261538737       -1.8727296978       -3.3248380864
 H        -6.5536296886       -2.6113668250       -1.7952369026
 H        -4.9597073924       -1.7664927200       -1.9613233027
 H        -7.4557558322        0.4603232759        0.2388823255
 H        -5.7266221554       -0.0793434877        0.2549140410
 H        -7.0788281011       -1.1864597309        0.3388430911
 H        -6.4767606399        5.0915607078       -6.8034241767
 H        -7.1136907708        3.4494382674       -6.4421010277
 H        -5.4363602209        3.6183754545       -7.3642893492
 H        -3.4366131628        4.4100297074       -6.0002757754
 H        -3.4236661944        4.2427885975       -4.2984006810
 H        -3.9686006211        5.7224955587       -5.0481913621
 H       -11.6242578570        4.4628959153       -3.6175626028
 H       -12.0407751199        4.0433097958       -1.9620557389
 H       -10.7756917581        3.1359163050       -2.8673241951
 H       -11.3412346588        6.7487552963       -3.3216446013
 H       -10.2804885607        7.4181039414       -1.9963086880
 H       -11.8658709119        6.6266519116       -1.7043283065
 H        -9.7664046380        7.4214920893        5.8771749936
 H       -11.2815189918        6.9608411787        5.1065455672
 H       -10.3183979476        8.4190383514        4.7943056562
 H        -7.2798908116        6.6056631982        4.6037175897
 H        -7.9338638905        8.2093144198        4.0536109606
 H        -7.5196480560        7.0611842153        2.9218693654
 H       -13.1526634765       -0.0515362328        6.0834851435
 H       -14.0672447815       -0.4757319543        4.5874818694
 H       -14.3166488689        1.0681809837        5.3579282272
 H       -11.5094028215       -0.9728371508        4.1631324650
 H       -10.6061895142        0.0436479732        5.3980998084
 H       -10.4092417399        0.2699033677        3.5398643959
 H       -13.4265984640        6.0218014464        2.5170216270
 H       -14.7931656168        6.0093984547        3.3846812549
 H       -14.5303468342        7.2869863680        2.2263504017
 H       -17.2160828346        5.5978313496        1.8919105594
 H       -17.0905477461        5.5489162056        0.0649670811
 H       -16.6037513559        6.9471084640        1.0017046071
 Na       -7.6956581246        2.9480623468       -2.4153992952
