117

 C       -14.7323811375        6.9609006652       -0.8991058482
 C       -14.2822154646        5.8056279354       -0.0981181731
 O       -13.1953299773        5.2098112263       -0.2553435432
 C       -15.2186691988        5.5690650284        1.1444891614
 C       -15.0583775964        4.0836200201        1.6833079050
 O       -15.9842026287        3.5145239785        2.1445717642
 C       -13.6554181555        3.4701428034        1.8171282782
 C       -13.7791884993        2.3375355016        2.9408729254
 C       -12.5027201407        1.4097493719        3.1037018319
 O       -11.8638616158        1.1199070912        2.1116520258
 C       -12.0434660918        0.9867140364        4.5702852993
 C       -11.8867716648        2.3675668710        5.2417260597
 O       -12.7650490652        2.9029988588        5.9318140012
 C       -10.6218458461        3.1692530359        4.9848901509
 C       -10.8965384566        4.6293068410        4.7555481165
 C        -9.5321965989        5.3683359696        4.5529311127
 O        -8.4916782947        4.8172564831        4.8189246553
 C        -9.5352655214        6.8328522807        3.8434867787
 C       -10.1556951079        6.7701164319        2.4711649634
 O       -11.3537686651        6.9229659301        2.3177086677
 C        -9.2766795652        6.2184023622        1.2199478108
 C       -10.1760690039        5.5995047006        0.2083982085
 C        -9.4347970000        4.9994537725       -0.9899342740
 O        -8.4726751977        4.2529733501       -0.9388413411
 C       -10.0613420330        5.1457467603       -2.4254865036
 C        -8.9547132614        5.1545385547       -3.5499733556
 O        -8.7481446860        4.2577379996       -4.3248868149
 C        -8.1475589417        6.4135231008       -3.6539434116
 C        -6.9295307735        6.1419201116       -4.6253051147
 C        -6.0733545458        4.9242758948       -4.0647579953
 O        -5.9990440135        4.7021606950       -2.8670249355
 C        -5.3485178358        3.9623572060       -5.0702370151
 C        -5.6630577235        2.5026885102       -4.4648670959
 O        -6.7751507113        2.0829871413       -4.6491408861
 C        -4.5402463219        1.7780517447       -3.6836767696
 C        -5.0105906552        0.3281599121       -3.3095097081
 C        -5.9485479683        0.3354265677       -2.0762939159
 O        -6.0364285636        1.3366992417       -1.4213178334
 C        -6.7191232198       -0.9457125219       -1.6725311585
 C        -8.2428403424       -0.7498185940       -2.0776958036
 O        -8.6205799012        0.3676542082       -2.3898270118
 C        -9.0376990497       -1.9898651468       -2.2544440841
 C        -6.1407040384       -2.1872002358       -2.3964566643
 C        -6.8033136012       -1.1808722114       -0.1330128157
 C        -6.0930456357        3.9859101224       -6.4605248922
 C        -3.8597860933        4.3218518616       -5.4257144505
 C       -10.9328099475        3.8841693374       -2.6101443193
 C       -10.9481503453        6.4007114128       -2.5437732376
 C       -10.5322172561        7.6548959313        4.7335040039
 C        -8.1527451323        7.4478901968        3.8934924210
 C       -13.2058947273        0.1980888727        5.1473842819
 C       -10.7423621446        0.0888485255        4.4027109330
 C       -14.6453189873        6.5016382665        2.2678315833
 C       -16.7171403981        5.8787798657        0.9806544266
 H       -14.0775069492        7.1928556519       -1.8311092586
 H       -14.7382902554        7.8425897611       -0.2069850291
 H       -15.7609275925        6.8900262317       -1.1551096517
 H       -12.8679406501        4.1792675841        2.1393878654
 H       -13.3465157309        3.0474092344        0.8797007450
 H       -14.7294230302        1.7848988838        2.6600832278
 H       -13.9157912032        2.8718012349        3.8211047762
 H       -10.0925970989        2.6830872490        4.1137738798
 H        -9.9584113500        3.1625173253        5.8581617683
 H       -11.3946379925        5.0504641960        5.5876643775
 H       -11.4980608254        4.8907682591        3.9241375666
 H        -8.5071717200        5.5510305749        1.6622853286
 H        -8.7471963551        7.0552110891        0.7928235781
 H       -10.9950653849        6.2805847602       -0.1506112346
 H       -10.7189894848        4.8053068842        0.5920486324
 H        -7.8478361004        6.6801970817       -2.6260498957
 H        -8.7635935446        7.2658795501       -3.9797861410
 H        -6.2498794385        7.0528403699       -4.7282465398
 H        -7.3655861973        5.8402026862       -5.5080575177
 H        -4.5365036046        2.3692913211       -2.8173588535
 H        -3.6334997202        1.7649819632       -4.3083426357
 H        -4.0478099879       -0.2395804220       -3.1820454335
 H        -5.4369284043       -0.1115772094       -4.1859288513
 H        -8.3966568950       -2.6912644878       -2.6906467967
 H        -9.9843237679       -1.9298039613       -2.8198759242
 H        -9.2920275196       -2.4548910495       -1.3283421604
 H        -6.1958761311       -2.2907942786       -3.5009886364
 H        -6.5156319449       -3.1541010610       -1.9154143741
 H        -5.0834246672       -2.3353401475       -2.1937566041
 H        -7.1978571723       -0.3162885165        0.3416146529
 H        -5.9032891394       -1.5446904119        0.2866219710
 H        -7.5310274351       -1.9599535142        0.0527713763
 H        -6.0969671944        5.0538464983       -6.7785205344
 H        -6.9820795825        3.3877957813       -6.2744054710
 H        -5.4459455296        3.4341344375       -7.1727679554
 H        -3.5975519697        3.9545715834       -6.4266814781
 H        -3.0333117292        4.0456354438       -4.6531711350
 H        -3.7908787076        5.4018349575       -5.5434552486
 H       -11.4381727599        3.7492023812       -3.5808903375
 H       -11.7079164633        3.9187066764       -1.8135983887
 H       -10.3253805257        2.9841213975       -2.3983508564
 H       -11.1004563080        6.5470358398       -3.6123104876
 H       -10.4248486500        7.3023954139       -2.2389607287
 H       -11.8894197589        6.3074329399       -1.9800063408
 H       -10.4613155864        7.3651880997        5.7608485992
 H       -11.5777024106        7.4391736858        4.4982314708
 H       -10.4171799925        8.7700777687        4.5775221083
 H        -8.1420678131        8.5169050346        4.1718197371
 H        -7.6304385345        7.4156031360        2.9512892014
 H        -7.5976875543        6.8518425139        4.5911305489
 H       -13.1847182138        0.1674899104        6.2434416783
 H       -13.2493185527       -0.8592824094        4.7286947497
 H       -14.1528469698        0.6764460734        4.9922870617
 H       -10.9290636538       -0.8039861274        3.7471644285
 H       -10.4944365647       -0.2936308426        5.4048221545
 H        -9.9071419358        0.7386537096        4.1346854996
 H       -13.6239115087        6.6932977908        2.2716727767
 H       -14.8553374305        6.0794999946        3.3020534181
 H       -15.0637151213        7.5326946453        2.4462102003
 H       -17.2424383086        5.2448591180        1.7165995758
 H       -17.1970386551        5.6610540532        0.0466454393
 H       -16.8824123556        6.9595285553        1.3419605491
 Na       -7.8012337207        2.7724181141       -2.6427826042
