117

 C       -14.5263907642        6.9991334460       -0.7999745047
 C       -14.2175897843        5.6948984293       -0.0231315687
 O       -13.3270533400        4.8907818150       -0.3691107377
 C       -15.0661464891        5.4486662427        1.2278915514
 C       -15.1537613611        3.9637328154        1.7049824292
 O       -16.2495504982        3.5313926407        2.0262377222
 C       -13.8248367634        3.1526925167        1.8320125624
 C       -14.0430707381        1.7916458089        2.6110949406
 C       -12.5771385175        1.2477234513        2.9254968174
 O       -11.8093234154        0.9305900838        2.0085195427
 C       -12.2296838843        0.9091935028        4.4140819058
 C       -11.9140318085        2.2937542169        5.0199444129
 O       -12.7258587189        2.8612868658        5.6762792510
 C       -10.5403530100        2.9846141977        4.6781671259
 C       -10.6433025837        4.5002428167        4.8632496314
 C        -9.3165615883        5.2204321789        4.5615597277
 O        -8.2916690692        4.6157357557        4.4797408177
 C        -9.4420059992        6.7140147227        3.9423934049
 C        -9.9610730400        6.3992884055        2.5317267721
 O       -11.1129253499        6.7064773794        2.3798640525
 C        -9.1833322832        5.7100037330        1.4475987929
 C       -10.0952098548        5.3908172296        0.2941809543
 C        -9.5077165255        4.9243452938       -1.0128531783
 O        -8.4444753423        4.2834212992       -0.9538496462
 C       -10.2179950153        5.2414002512       -2.3385936299
 C        -9.1188092656        5.2520141771       -3.4809058052
 O        -8.7986803546        4.2367237621       -4.0089625038
 C        -8.2775740945        6.5174169531       -3.7107497920
 C        -6.9867514665        6.1130613028       -4.5124737293
 C        -6.3467183477        4.8204012538       -4.0083545666
 O        -6.3355037597        4.5316093893       -2.8170511911
 C        -5.5567029039        3.9865807054       -5.0830754352
 C        -5.6777400113        2.5122939636       -4.6696144267
 O        -6.6406818161        1.8766794453       -4.9564212185
 C        -4.4035259845        1.9594058544       -3.8393980470
 C        -4.7185057603        0.5614698412       -3.2017330403
 C        -5.7473363104        0.7150890998       -1.9986821648
 O        -5.8826571906        1.8119390151       -1.5153099196
 C        -6.6599968183       -0.5526329376       -1.6563303106
 C        -8.2507970808       -0.3380238169       -2.1529213799
 O        -8.6754993279        0.8042138322       -2.1941616768
 C        -9.1017296060       -1.5035535266       -2.4335368771
 C        -6.0929872330       -1.8573214437       -2.2339530864
 C        -6.7270946698       -0.6177269802       -0.0573431581
 C        -6.0456518547        4.0993855244       -6.5630091843
 C        -4.1723881508        4.6076532214       -5.0988723211
 C       -11.2121510362        3.9808030504       -2.5307096945
 C       -10.9328238469        6.6536254548       -2.2722936054
 C       -10.5129438787        7.5399400811        4.6981915532
 C        -8.0347177177        7.4319207160        3.8400277722
 C       -13.4045629228        0.2103541727        5.1764837108
 C       -11.0032388813       -0.0135860277        4.5276780864
 C       -14.6237136196        6.2852825867        2.3977848412
 C       -16.4955394687        5.9262155477        0.9185766151
 H       -13.7138687726        7.4412464815       -1.3930352673
 H       -14.8054987230        7.8602366996       -0.0720507715
 H       -15.3641076555        6.8582377545       -1.4871409176
 H       -13.0346631655        3.7647469588        2.3365835258
 H       -13.4850303386        2.9777373964        0.8202258346
 H       -14.6610462347        1.0741560930        1.9593826890
 H       -14.5787321491        2.0463782782        3.4657764499
 H       -10.3369455702        2.7353792458        3.6008801687
 H        -9.8100851965        2.4617370738        5.3117572780
 H       -10.9702609449        4.7564162478        5.8652701279
 H       -11.4092400946        4.9362149755        4.2542111939
 H        -8.7327948487        4.6887207714        1.6938746048
 H        -8.3344562701        6.3342755296        1.1318913880
 H       -10.8871038687        6.1943418231        0.0355703283
 H       -10.7736943617        4.6235430525        0.5337015150
 H        -7.9682338600        6.8516397016       -2.7012323022
 H        -8.8755117573        7.3322351636       -4.1718736365
 H        -6.1842786846        6.8925368443       -4.5025499729
 H        -7.2621275133        5.8273127274       -5.5177049909
 H        -4.2328394142        2.5902076406       -3.0329874842
 H        -3.6329170843        1.9576591553       -4.6177613455
 H        -3.7595010461        0.0339215360       -2.9227609819
 H        -5.0097880381       -0.1086334209       -3.9407446523
 H        -9.8223223352       -1.2961497462       -3.1676644290
 H        -9.6110381624       -1.8490628401       -1.5179556110
 H        -8.5037930216       -2.3793091621       -2.8298378779
 H        -6.1081858868       -1.8533732682       -3.2950525295
 H        -6.6257717224       -2.7603659368       -1.9021583518
 H        -5.0778157261       -2.0070139628       -2.0357511187
 H        -7.1688923903        0.2992591483        0.3216185592
 H        -5.8410962222       -0.9064775854        0.3690469312
 H        -7.4667696424       -1.4246897456        0.2749630747
 H        -5.7256815218        5.0066395632       -7.0604540765
 H        -7.0985706310        3.9326391636       -6.5214862730
 H        -5.5608489309        3.2338035109       -6.9604838333
 H        -3.3824903129        4.1004149640       -5.6353696161
 H        -3.7600778852        4.6806165547       -4.0620500420
 H        -4.1646722426        5.6030235308       -5.5746463120
 H       -11.8392743037        3.9812507951       -3.4371724524
 H       -11.8439048702        3.8887517337       -1.6474019587
 H       -10.6684615338        3.0627946878       -2.5775323308
 H       -11.1936134166        6.8824755884       -3.3124528985
 H       -10.3232401836        7.4614958725       -1.8580762525
 H       -11.8386821681        6.6603186039       -1.7283589471
 H       -10.2243947648        8.0263898166        5.6539201270
 H       -11.4143569221        6.9503937626        4.8132735900
 H       -10.7402898869        8.5020809012        4.0944961418
 H        -7.6681338364        7.5199799236        4.8336404367
 H        -8.1524316265        8.4438312497        3.4269318988
 H        -7.2637901919        6.9439352765        3.2730040008
 H       -13.0184281266       -0.4789182265        5.9707540994
 H       -13.9135278401       -0.3114282629        4.3505599511
 H       -14.1787158928        0.8126774730        5.6309677224
 H       -11.3199200110       -1.0460405010        4.3750919063
 H       -10.5397437163        0.1205047853        5.4771473485
 H       -10.3491524231        0.2791625290        3.7574163380
 H       -13.9962360482        5.8242723870        3.0830997121
 H       -15.3695995748        6.6598568757        3.1197405048
 H       -14.0088865450        7.1210409809        2.1627718895
 H       -17.1558024226        5.9996988561        1.7734644326
 H       -16.9513746227        5.2913904784        0.2534927655
 H       -16.5256571191        6.9269183827        0.4182538842
 Na       -7.6192314100        2.7855368894       -2.4185985246
