117

 C       -12.8367301553        2.7987411852        0.5606350507
 C       -13.0245622516        1.9265058271       -0.6654773100
 O       -13.0660191449        2.4593376620       -1.7636959051
 C       -13.2731327380        0.3022251247       -0.5939768644
 C       -11.7903096251       -0.0096833452       -0.5250954536
 O       -11.0958506003        0.2154412093       -1.5729444587
 C       -11.1053269663       -0.5325693194        0.7024336794
 C        -9.6307822870        0.0076135059        0.7130995080
 C        -8.6253800730       -0.9340184300        1.4301674020
 O        -9.1457428328       -1.6473630928        2.3018694133
 C        -7.0376498286       -0.6813580399        1.1900277981
 C        -7.0202909965        0.6038877303        0.4424162872
 O        -7.1592422778        1.7004296466        0.8693698562
 C        -6.9708167326        0.4633990581       -1.3215423872
 C        -6.6963961213        1.9408971872       -1.9104918801
 C        -7.4875776604        1.9464135355       -3.3107576742
 O        -8.7312129299        1.9167765364       -3.3173203791
 C        -6.7255379373        1.9577064989       -4.6197073847
 C        -7.1410449429        3.2659488690       -5.4969029037
 O        -6.2984226213        3.7449246283       -6.3057782982
 C        -8.6238652817        3.7742611711       -5.6219661737
 C        -9.0941515687        4.8776561022       -4.6999460245
 C       -10.5465144809        4.9631984159       -4.4363280698
 O       -11.2060816902        3.9178506888       -4.5940728452
 C       -10.8793794711        6.1551997143       -3.3512490982
 C       -10.0753219772        5.6406335775       -2.1231884679
 O       -10.3771272112        4.5087312227       -1.7112742833
 C        -9.0227304682        6.6173559235       -1.5704566416
 C        -8.0839116578        5.8621014998       -0.6354859542
 C        -7.7733718878        6.7260966946        0.5518386432
 O        -7.5222162671        7.8993178772        0.6210124402
 C        -7.7317965878        5.9840579247        1.8606132491
 C        -9.1485494324        5.3928811431        2.0938834947
 O        -9.6591153985        4.6279379266        1.2801552011
 C        -9.7539844711        5.4689171898        3.5293128374
 C       -11.0697211764        6.1160966974        3.6272564185
 C       -11.5868131403        6.7170685669        5.0016335137
 O       -10.8306397138        6.8820572237        5.9772622421
 C       -13.1065220698        7.1386377975        5.1197254316
 C       -13.8542646808        5.7969050385        5.0412013454
 O       -13.5586164027        4.7122469568        4.5048526585
 C       -15.3831485566        5.9046391157        5.2627537129
 C       -13.3428752188        7.9488508369        6.4249017306
 C       -13.7112005998        7.8996175866        3.9149906978
 C        -6.5057853047        4.9936226021        1.9279696330
 C        -7.4729690384        7.1175379469        3.0011205598
 C       -10.4393539051        7.4707613224       -4.0432207868
 C       -12.4122353890        6.1377997332       -3.0809592297
 C        -5.1583701995        1.9345394113       -4.4026566858
 C        -6.9672914585        0.7601352997       -5.4278141100
 C        -6.5260823591       -0.5712913132        2.6016318511
 C        -6.1904935476       -1.6826487488        0.4873396870
 C       -14.1757277889       -0.0434382932        0.5821441755
 C       -13.9584833465       -0.1396019762       -1.9221498504
 H       -13.7485179040        3.2586549023        0.9176300451
 H       -12.1530274706        3.6447466843        0.4101097496
 H       -12.4245295478        2.2202937171        1.3967430078
 H       -10.9769045861       -1.5741801391        0.5869744411
 H       -11.6356315992       -0.3041023835        1.6191297877
 H        -9.6256576603        1.1170478375        0.9958161116
 H        -9.3207576257        0.2201965993       -0.3074284972
 H        -7.9663205490        0.4277816296       -1.7922802369
 H        -6.2699577336       -0.3250217324       -1.6686164006
 H        -5.5991065450        2.2318789834       -1.8835945527
 H        -7.1715147453        2.7300941163       -1.4035632327
 H        -9.4210945033        3.0608043410       -5.3872796194
 H        -8.5949017423        4.1675413560       -6.6756798979
 H        -8.5361856623        5.8230947281       -5.0093010501
 H        -8.6661176521        4.6906504591       -3.8193813814
 H        -9.4659024898        7.6157617867       -1.2286783420
 H        -8.4351216637        7.0475410657       -2.3154804657
 H        -7.1870454916        5.7700344639       -1.1901809904
 H        -8.5378667069        4.8248345466       -0.3970712720
 H        -8.9813960438        5.9662830270        4.1619574847
 H        -9.7611476263        4.5461174577        3.9713398478
 H       -11.8806066622        5.4002019904        3.3220476805
 H       -11.1151839744        6.8005664009        2.7873831919
 H       -16.1154112087        5.2699845770        4.5844175669
 H       -15.7902408521        6.8577881934        5.1387836021
 H       -15.6812714384        5.6102942689        6.2843700794
 H       -14.4000466224        8.0290899034        6.7190365100
 H       -12.9434043725        8.9099660711        6.3960056425
 H       -12.9509183511        7.3969727478        7.3023709141
 H       -13.8290259081        7.1989017600        3.0298453106
 H       -13.2987669481        8.9496994752        3.7163087678
 H       -14.7453680618        8.2882740701        4.3489788413
 H        -6.3548137415        4.5893509041        2.8359651855
 H        -5.6499581904        5.5885806122        1.5859522714
 H        -6.7469380485        4.1584180180        1.2879970317
 H        -7.3919652814        6.5619915914        3.9587470011
 H        -8.3837757241        7.6772668242        3.0697821343
 H        -6.5680305201        7.6877598821        2.9869922303
 H       -10.0618003936        8.2481287675       -3.3054001965
 H       -11.1585111633        7.9493724184       -4.6540852359
 H        -9.6097174842        7.2374090685       -4.7890282326
 H       -12.6852438812        6.7772418282       -2.2342114090
 H       -12.7166491544        5.0949309080       -2.8148491730
 H       -13.0481452132        6.5245793689       -3.8564687116
 H        -4.7045836203        2.7525561195       -3.9462450741
 H        -4.7381604255        1.7929377749       -5.3565620897
 H        -4.7597625599        1.0905176354       -3.9149771402
 H        -6.5665553146       -0.0468027627       -4.7929038431
 H        -6.3758824342        0.7840937763       -6.3012994767
 H        -8.0064033536        0.6171570195       -5.6196691695
 H        -5.4196054812       -0.4396931575        2.6754908694
 H        -6.5708763202       -1.5718078397        2.9951736645
 H        -7.1546234255       -0.0079815647        3.2785189794
 H        -6.2066153552       -2.6573632583        0.9038293299
 H        -5.2099870250       -1.4041228521        0.5415349444
 H        -6.4297568967       -1.6486777039       -0.6114960175
 H       -14.9566200652        0.7745303015        0.6964177030
 H       -13.6283558813       -0.0942086439        1.4800206790
 H       -14.6446091838       -1.0436171770        0.4329544629
 H       -14.8654037486        0.4664007390       -1.8238549992
 H       -14.1079660859       -1.1973712181       -1.7244588345
 H       -13.3207237247       -0.0454213034       -2.7946588560
 Na      -10.9960883477        2.1436583715       -3.1602564990
