117

 C       -14.8202449351        6.9572948769       -1.0943190666
 C       -14.3899620023        5.9465738034       -0.0581910141
 O       -13.3649225229        5.3235493243       -0.3018390622
 C       -15.1723185229        5.7289335663        1.2671405148
 C       -15.0607466197        4.1480399917        1.7157704429
 O       -16.0668566580        3.4725708318        1.9510103635
 C       -13.6703558324        3.5655770800        1.9637716688
 C       -13.6623574849        2.4660936160        3.0724237791
 C       -12.4443820611        1.5417240044        3.0592095129
 O       -11.7643183108        1.3077951784        2.0709336314
 C       -12.0230825827        1.1064837556        4.5297598282
 C       -11.9003248681        2.4315394971        5.3636555982
 O       -12.7008486755        2.7391522154        6.1767991395
 C       -10.5813544320        3.1666659595        5.0711336573
 C       -10.8283570698        4.6503170030        4.7995435795
 C        -9.5151598208        5.4402026970        4.6012755147
 O        -8.4453981406        5.0101283810        4.8813555040
 C        -9.6031078681        6.9110994506        3.8870556095
 C       -10.2351066405        6.8583787491        2.4230456497
 O       -11.4045041431        7.1097215894        2.2552129318
 C        -9.3853731064        6.3324581137        1.2161712259
 C       -10.3330469321        5.6299130455        0.1990601232
 C        -9.5676177836        4.9990516435       -1.0115224041
 O        -8.6648168578        4.1988204768       -0.7926374124
 C       -10.0620363363        5.1426584703       -2.4686877698
 C        -8.8742714023        5.1836724420       -3.5257848910
 O        -8.7008329293        4.1674144324       -4.1983986876
 C        -7.9465926267        6.4193431853       -3.7626719700
 C        -6.7235207687        6.1487546574       -4.6739780777
 C        -5.9355924766        4.9141510516       -4.1453627752
 O        -5.7422176750        4.7259173607       -2.9568741531
 C        -5.3783197767        3.8446885231       -5.2040336441
 C        -5.6323113526        2.4523999964       -4.5252684790
 O        -6.7635248169        1.9798518168       -4.4849715588
 C        -4.4564080245        1.6831158186       -3.7634669825
 C        -5.0617024479        0.3089076560       -3.3271949008
 C        -5.9925830450        0.3023124818       -2.1595707579
 O        -6.3535001694        1.2507285296       -1.4292663295
 C        -6.6588072046       -1.1404288296       -1.7993368338
 C        -8.2313308139       -0.8921929937       -2.2177519323
 O        -8.6983489859        0.1724978857       -2.5521453090
 C        -9.2528238615       -2.0685217763       -2.1755358583
 C        -6.0016319585       -2.3437187072       -2.4101997103
 C        -6.6622051306       -1.2767765917       -0.2690130308
 C        -6.0736502359        3.8614896129       -6.5820402576
 C        -3.8607742558        4.1618629253       -5.2437010611
 C       -10.8795143445        3.7906648280       -2.7300859997
 C       -11.0311209411        6.3154341978       -2.8015816008
 C       -10.5333084820        7.7366536094        4.8552098114
 C        -8.2020126595        7.4593643847        3.8064999455
 C       -13.1252944261        0.2905191113        5.1056442472
 C       -10.7268175797        0.3035024524        4.5544034954
 C       -14.6517647857        6.5651015465        2.4494497641
 C       -16.6863648796        5.8959688621        0.9019277574
 H       -14.0430753704        6.9956147858       -1.7581386387
 H       -15.1094369037        7.9353593049       -0.6973943933
 H       -15.7705668979        6.6357632130       -1.6262320977
 H       -12.9718730622        4.3197860452        2.2993186244
 H       -13.2276203223        3.1206612409        1.0328860195
 H       -14.5014185346        1.8499832970        2.9099413634
 H       -13.7334992769        2.9699962726        4.0964978880
 H       -10.0715592312        2.7035962568        4.2764739454
 H        -9.9455342057        3.1149757800        5.9735481500
 H       -11.4458764535        5.1987812160        5.5775945159
 H       -11.3392880548        4.8426329671        3.8111347777
 H        -8.5945284128        5.8024385936        1.7176128796
 H        -8.9296068570        7.2879753609        0.8362335550
 H       -10.9874337726        6.3997277620       -0.2337803691
 H       -11.0615872247        4.9099855812        0.7932578853
 H        -7.5913135196        6.7427857793       -2.7733858095
 H        -8.4356385561        7.3246917471       -4.1474114087
 H        -6.1399634665        6.9897940394       -4.4766270416
 H        -7.0241621039        6.0880896055       -5.8072102730
 H        -4.1688329224        2.3351619125       -2.8914978802
 H        -3.7334373474        1.5228508540       -4.5257905391
 H        -4.2088462748       -0.3242945369       -3.1746836296
 H        -5.6262171292       -0.0646757346       -4.2154995235
 H        -8.9631464689       -3.1238674826       -1.9484285372
 H        -9.7173638867       -2.0558611942       -3.1448993073
 H       -10.1053741367       -1.8941738753       -1.4416090196
 H        -6.0792455012       -2.3515941822       -3.4586805602
 H        -6.4708374735       -3.2295252939       -2.1472190151
 H        -4.9621791792       -2.5112808867       -2.1612659914
 H        -7.5827482020       -0.8490385918        0.1966302971
 H        -5.7491128346       -0.8544140439        0.1683377188
 H        -6.6018870701       -2.3910893733       -0.0097336932
 H        -5.5213455515        4.5522168752       -7.1096201065
 H        -7.1048336754        3.9824181019       -6.3594618865
 H        -5.9460720927        2.8972270152       -6.9812298122
 H        -3.3738190618        3.7043180416       -6.1194762355
 H        -3.3927220384        3.8985967334       -4.3641257814
 H        -3.6700429785        5.2766632144       -5.2723654675
 H       -11.1731000523        3.9207681376       -3.7771754776
 H       -11.8035045492        3.6837625544       -2.1913305947
 H       -10.3108364757        2.8776475991       -2.6538750867
 H       -11.1853154633        6.4106721057       -3.8725510254
 H       -10.7251198242        7.2925521680       -2.3984206824
 H       -11.9301102257        5.9879097804       -2.3454830149
 H       -10.0181711757        7.6786955984        5.8675014480
 H       -11.5459811466        7.3932220767        5.0620694478
 H       -10.6610590249        8.7440523799        4.4909019989
 H        -8.1019662977        8.2452132980        3.1101869647
 H        -7.5555852880        6.6199940591        3.4492977465
 H        -7.8538588892        7.6798760433        4.8181332862
 H       -12.9100709734       -0.0096145768        6.1505689496
 H       -13.2641207110       -0.6197972508        4.5981337047
 H       -14.0815400301        0.8580954184        5.1975187593
 H       -10.9245340144       -0.6791271551        4.1867845958
 H       -10.3906043241        0.1962761467        5.5741702820
 H        -9.9441833489        0.7278893668        3.9560556972
 H       -13.6199650082        6.9804454263        2.3510929209
 H       -14.6888595357        6.1140180253        3.3939702517
 H       -15.2195717436        7.4190485849        2.6537857795
 H       -17.2767826227        6.0302024338        1.7933306003
 H       -16.9890011293        4.9119483347        0.5500656871
 H       -16.8968486144        6.6600860111        0.2359829599
 Na       -7.7943695409        2.6285017720       -2.3917006748
