117

 C       -14.9127717358        6.9687024109       -1.0935797991
 C       -14.3694350133        5.9516006714       -0.0939333207
 O       -13.3189233522        5.2839311625       -0.2512081110
 C       -15.2472619917        5.6528010345        1.1910981539
 C       -15.0733351625        4.2653698937        1.6985875136
 O       -15.9969230715        3.5086109266        1.7980768040
 C       -13.6193078983        3.6409737338        1.9589723684
 C       -13.7510543785        2.5067421277        3.0142399013
 C       -12.4361054460        1.6760106745        3.1263477806
 O       -11.7301283881        1.4331861413        2.1436071814
 C       -12.0120379265        1.0535452722        4.5462294866
 C       -11.7441055279        2.4195916600        5.4830027082
 O       -12.5894244485        2.7481188061        6.2911849912
 C       -10.5174190694        3.2648015648        5.1720241974
 C       -10.8482687468        4.7045564723        4.8063926755
 C        -9.5297887026        5.5101406318        4.5124546433
 O        -8.4507928956        5.1244130109        4.8701890898
 C        -9.5958704774        6.9555070849        3.8783643241
 C       -10.3138450845        6.8279824684        2.4735518157
 O       -11.4515402940        7.1938037041        2.2843344765
 C        -9.4308472629        6.2821288246        1.2296783060
 C       -10.3718431737        5.7611111412        0.1161753408
 C        -9.6430237978        5.0091318093       -1.0321844564
 O        -8.7228517903        4.2259737536       -0.7580301273
 C       -10.1220189888        5.1216310495       -2.5571229291
 C        -8.7770130831        5.0543203615       -3.5276366682
 O        -8.4951156135        4.0907603745       -4.1538461336
 C        -7.9360250402        6.3440701924       -3.6303148648
 C        -6.6856127769        6.1261629323       -4.6246690183
 C        -5.9716667167        4.8416231941       -4.1973794830
 O        -5.6880688310        4.7136902609       -3.0136437135
 C        -5.4021817485        3.8017002344       -5.1639935036
 C        -5.7157982018        2.4496647931       -4.4647828130
 O        -6.7621905112        1.8939603038       -4.4608787849
 C        -4.4894050588        1.7127933811       -3.8169295107
 C        -4.9944302570        0.2758604340       -3.3373706246
 C        -6.0513844759        0.2132519533       -2.2098771405
 O        -6.3222337703        1.1746093613       -1.5269665109
 C        -6.7686143841       -1.1715916780       -1.8514479405
 C        -8.3006416761       -0.9557182673       -2.2541835654
 O        -8.6254059737        0.1568084111       -2.6047694917
 C        -9.2178618362       -2.1088855029       -2.1468234079
 C        -6.0860038492       -2.3554671172       -2.4776803263
 C        -6.6446943358       -1.2972859411       -0.2507510962
 C        -5.9920926418        3.8199692488       -6.6084065236
 C        -3.8611046884        4.1062913178       -5.2139994712
 C       -10.9029052635        3.8389386931       -2.8365187952
 C       -11.0395827613        6.3288776494       -2.7258987791
 C       -10.4921605716        7.8219822645        4.8126738631
 C        -8.1697645515        7.4933496230        3.7511665497
 C       -13.2229911655        0.2580570457        5.0950993975
 C       -10.6514185825        0.2639657462        4.5362671917
 C       -14.7486130092        6.5569082562        2.3481684881
 C       -16.7893730882        6.0054117585        1.0247803225
 H       -14.1608540890        7.3212307841       -1.7968348932
 H       -15.4488895070        7.7662261643       -0.6229761744
 H       -15.6528423363        6.4824325710       -1.6144915626
 H       -12.8764270063        4.2885476704        2.4387050509
 H       -13.1315468377        3.2168304247        1.0567297528
 H       -14.4902503307        1.7657433769        2.6159899242
 H       -14.0682580678        2.9009138118        3.9547615220
 H        -9.9073857082        2.7641366014        4.4334281361
 H        -9.9534746509        3.3111841107        6.0899369193
 H       -11.2811016755        5.3028596654        5.6944371446
 H       -11.5292061776        4.8161059154        3.9538667528
 H        -8.8333595989        5.4933834472        1.7407773181
 H        -8.7476621392        7.0840824002        1.0214889852
 H       -11.0791541978        6.5313231239       -0.2865498996
 H       -10.9352798647        5.0895558609        0.6066023826
 H        -7.7019521431        6.7587088488       -2.6418734144
 H        -8.5648050452        7.1202921363       -4.0516339481
 H        -6.0172570984        6.9780901486       -4.5412736063
 H        -7.0829050521        6.0272927468       -5.6387582164
 H        -4.1961223383        2.3387113772       -2.9324452273
 H        -3.7398441139        1.6364795892       -4.6524769444
 H        -3.9801176128       -0.1952021228       -3.0394731600
 H        -5.3676898479       -0.1986590567       -4.2088947227
 H        -8.8427723730       -2.9040352902       -1.5429929967
 H        -9.5496956829       -2.5526223430       -3.1124881304
 H       -10.1521795183       -1.8062925512       -1.5573434354
 H        -6.0881390922       -2.4558676186       -3.5309193417
 H        -6.6129844956       -3.2865226299       -2.1896111230
 H        -5.1043821015       -2.4735511810       -2.1253498637
 H        -7.5532237183       -0.8879455907        0.2733120387
 H        -5.7699888534       -0.8580763193        0.1621543989
 H        -6.5950895342       -2.4374028277       -0.0468460116
 H        -5.2903544831        4.4927503486       -7.0588254268
 H        -7.0188758918        4.0715994836       -6.4651107884
 H        -5.8701316076        2.8135632537       -7.0072730494
 H        -3.4460474252        3.2674893914       -5.6833541362
 H        -3.4292177661        4.2725594618       -4.2193836136
 H        -3.6262096567        5.0119526155       -5.7432815425
 H       -11.2101943865        3.7975932741       -3.8881572290
 H       -11.8287908870        3.8170192310       -2.2845411538
 H       -10.3233518777        2.9990875745       -2.5933337576
 H       -11.5087942453        6.3033115538       -3.7354259161
 H       -10.5284900756        7.3042909526       -2.5468309816
 H       -11.8199139334        6.1474177886       -2.0497512345
 H        -9.9408829689        7.9383241796        5.7230638652
 H       -11.3673812481        7.3611658552        5.1103873891
 H       -10.8387420771        8.7637290098        4.3526902766
 H        -8.1275710561        7.9935088976        2.7988204417
 H        -7.3374571218        6.7054078856        3.7718879610
 H        -7.9942412011        8.1717976596        4.5975155881
 H       -12.9392682892       -0.2780517888        6.0199442387
 H       -13.5252099626       -0.5739623716        4.4939761639
 H       -14.0436372114        0.8702971734        5.3377364625
 H       -10.8898822441       -0.7848205368        4.2619038569
 H       -10.0982720186        0.2574564484        5.4697536861
 H       -10.0594523681        0.5738091900        3.7072723123
 H       -13.7361380340        6.7608558773        2.3849167169
 H       -15.0378632902        6.2603082774        3.3865206257
 H       -15.2201353414        7.5532563000        2.3095169449
 H       -17.1862099837        6.3000318593        2.0056568748
 H       -17.3010806322        5.1684671499        0.7465060224
 H       -16.9194118178        6.8605729644        0.3160611576
 Na       -7.8100825764        2.5245715595       -2.2859728850
