117

 C       -14.5711524120        6.9775729611       -0.8188751333
 C       -14.2009518787        5.7496893340       -0.0297065034
 O       -13.2899156665        5.0381930259       -0.4534024796
 C       -15.1199112873        5.4934871356        1.1990551467
 C       -15.1174279112        3.9578953050        1.7084809573
 O       -16.1590674673        3.5608931615        2.0988790404
 C       -13.7827467125        3.2025252811        1.8212801823
 C       -13.9474509473        1.9036459829        2.7263600897
 C       -12.5860575563        1.1868304822        2.9509034881
 O       -11.8443616159        0.9933934109        2.0192985114
 C       -12.1859422206        0.8604995700        4.3966183232
 C       -11.8816123277        2.2914320294        5.0967608873
 O       -12.7934175900        2.8332445764        5.7531219345
 C       -10.5409015363        3.0041188638        4.7757325155
 C       -10.7374231061        4.5480996700        4.7794873097
 C        -9.3844783026        5.2579986527        4.4994814397
 O        -8.3348271585        4.6358015397        4.5542627038
 C        -9.5030733790        6.7880687794        3.9897845761
 C       -10.0274247781        6.5101097051        2.5154082255
 O       -11.2067891881        6.6934112152        2.2692996067
 C        -9.1236277548        5.8291697173        1.4747630054
 C        -9.9888690429        5.4299724378        0.3077406032
 C        -9.3615486536        4.9756223053       -1.0309731925
 O        -8.3707209645        4.3186511911       -1.0501454614
 C       -10.1725277653        5.2339674961       -2.3818408049
 C        -9.0939652306        5.2054233690       -3.4290033778
 O        -8.8729627463        4.1910936308       -4.0881693079
 C        -8.2709546242        6.4732852956       -3.5759755527
 C        -7.0456232661        6.2019113314       -4.4243341268
 C        -6.3295485506        4.8591427564       -4.0590642149
 O        -6.2536165164        4.4964095020       -2.9148292067
 C        -5.5073293864        4.0172085211       -5.1003243880
 C        -5.6635382199        2.5015925907       -4.5928163203
 O        -6.6749601219        1.8611523189       -4.8586637040
 C        -4.5506852434        1.9125825044       -3.7861816961
 C        -4.8098540614        0.4947003692       -3.1542181399
 C        -5.8504835671        0.5489974179       -2.0806250468
 O        -5.9452056303        1.5785079682       -1.4621412867
 C        -6.6723846874       -0.6341999582       -1.6679767039
 C        -8.1742853399       -0.4309747957       -2.1486361228
 O        -8.6411166261        0.6866067468       -2.2440789825
 C        -9.1066135814       -1.5707073533       -2.4117861096
 C        -6.0860118255       -1.9028815558       -2.2547032291
 C        -6.6959472877       -0.6845117201       -0.0727893567
 C        -6.1015112033        4.0893347416       -6.6330672518
 C        -4.0736618443        4.6150458317       -5.0609838265
 C       -11.1560750294        4.0896028259       -2.5687790253
 C       -10.9718625707        6.5460732059       -2.4199187844
 C       -10.4772911275        7.6626128048        4.6790448114
 C        -8.0700294293        7.5013546871        3.8799779478
 C       -13.3439331154        0.2407682809        5.2155708791
 C       -10.9050497337       -0.0099352607        4.5163773826
 C       -14.6219472252        6.4003974687        2.4126126857
 C       -16.5895865586        5.8786422706        0.9112414843
 H       -13.7373415435        7.2823682554       -1.5456953953
 H       -14.7722330534        7.8409495456       -0.2374727108
 H       -15.4423193631        6.7780099415       -1.3912833159
 H       -13.0000501980        3.8963148443        2.1960185172
 H       -13.4959477126        2.9419106890        0.8039718693
 H       -14.6213542284        1.2496539172        2.1645748623
 H       -14.4133482030        2.2426380400        3.6670201102
 H       -10.2040502280        2.6436307576        3.8001347975
 H        -9.8887979592        2.6263096577        5.5473022615
 H       -11.1175212273        4.9423057959        5.7132211093
 H       -11.5397052140        4.9210929798        4.0268903386
 H        -8.5349029293        4.9890936434        1.8255654671
 H        -8.3893725864        6.5969492270        1.1002463696
 H       -10.7644420570        6.2690321766        0.0955317094
 H       -10.7848316174        4.6065125042        0.5275577232
 H        -7.9673783132        6.8709170611       -2.5930973156
 H        -8.9595924037        7.2158341825       -4.0379604231
 H        -6.2676649150        7.0289467489       -4.2580553542
 H        -7.3502638459        6.0884331685       -5.3961936563
 H        -4.4933527514        2.5628770800       -2.9095375917
 H        -3.7089606361        1.9530127982       -4.4950507457
 H        -3.8958840851        0.1221559096       -2.7691263257
 H        -4.9847418562       -0.2855848859       -3.9573391930
 H        -9.5640181421       -1.3957173469       -3.4209347728
 H        -9.9434730125       -1.5369038669       -1.6240369266
 H        -8.7327807297       -2.5573962856       -2.4364132992
 H        -6.0741235443       -1.7987568547       -3.3037654795
 H        -6.5968387085       -2.7998642701       -2.0246917475
 H        -5.0849387901       -2.1021810779       -2.0527948482
 H        -6.7098594866        0.3799553316        0.3029464957
 H        -5.8661766448       -1.3735460696        0.2974732521
 H        -7.5791144942       -1.1080102657        0.3626121806
 H        -5.5649572536        4.8547459094       -7.1542569608
 H        -7.1604718185        4.1468469783       -6.5409041586
 H        -5.8557845505        3.1462370903       -7.0112133965
 H        -3.2877088589        3.9283061501       -5.3005460899
 H        -3.7720766504        4.9705891126       -4.0366213169
 H        -3.9244643380        5.3368521380       -5.7754933388
 H       -11.6024283863        4.1997822188       -3.5086395090
 H       -11.9127411824        4.0258830707       -1.8052053715
 H       -10.6748420548        3.1087346402       -2.6121013088
 H       -11.2561096601        6.8769711294       -3.3940648887
 H       -10.4017715452        7.3271696747       -1.9806635479
 H       -11.8632015517        6.4354570821       -1.7300885208
 H       -10.2383981097        8.0887033897        5.6238199371
 H       -11.4662050432        7.1301051448        4.7577308219
 H       -10.6047600067        8.5566759705        4.0479562272
 H        -7.7977284210        8.1667765806        4.7792466354
 H        -8.0778445282        8.1395984854        3.0252556503
 H        -7.2488086230        6.7909990951        3.7609624686
 H       -13.0496693851       -0.1997218507        6.1249322054
 H       -13.9743632619       -0.3951674306        4.5447949005
 H       -14.0268909967        1.0138603555        5.5152781026
 H       -11.1443211741       -0.9796263387        4.1486283738
 H       -10.5742352581       -0.0914872253        5.5135709686
 H       -10.1302053195        0.4633481225        3.9246171482
 H       -13.9572717771        5.8942297476        3.0375281536
 H       -15.2997532414        6.8347588948        3.1169484628
 H       -13.9555449463        7.1922604464        2.1405886934
 H       -17.2433912214        5.6505218724        1.6921885343
 H       -16.9665610819        5.3610963514        0.0258401273
 H       -16.6352666861        6.9456401553        0.7071983234
 Na       -7.6432449335        2.6614224629       -2.4698541888
