117

 C       -15.4222269862        6.8814030398       -1.5370031299
 C       -14.7376452559        6.1491282972       -0.4185205942
 O       -13.5947245550        5.6945430772       -0.6063800888
 C       -15.5138025443        5.8748096098        0.8946564971
 C       -15.0784134374        4.4141177713        1.4522370113
 O       -15.8468668940        3.5121518916        1.3914314994
 C       -13.6407513710        4.2866487372        2.0904067056
 C       -13.5327931168        2.9708153477        2.9381496610
 C       -12.1382025919        2.6288669087        3.4093379894
 O       -11.2236191643        2.8518623454        2.5681959838
 C       -11.8771198747        1.7831675818        4.6920241979
 C       -11.2309141022        2.7539304370        5.7926910375
 O       -11.8577917733        2.9722615741        6.8168126752
 C        -9.9388438838        3.5224356510        5.3890731902
 C       -10.1689481486        4.9896501971        5.3455332321
 C        -9.1036370130        5.7353203542        4.4265204048
 O        -7.9296917285        5.3917603031        4.4283566157
 C        -9.6848297316        6.9869649220        3.5739525264
 C       -10.4614348333        6.4427634132        2.3936561794
 O       -11.5931912052        6.8895024924        2.1785204976
 C        -9.7770237558        5.3704668628        1.5057861593
 C       -10.1200614917        5.6968263454        0.0564912926
 C        -9.6470953517        4.7296462499       -1.0143662055
 O        -9.1464592278        3.6594668674       -0.8276017385
 C       -10.0956910102        5.1654701469       -2.5031935208
 C        -8.9214308768        5.0021877668       -3.5098232093
 O        -8.6135395427        3.9338136502       -4.0524535611
 C        -7.8976776916        6.1242632796       -3.5665979896
 C        -6.6305409587        5.6602935396       -4.3831670154
 C        -6.2423559886        4.2426083855       -3.9322601372
 O        -6.3142019907        4.0584103321       -2.7214600037
 C        -5.4456780445        3.2961294111       -4.8852788273
 C        -5.6255326521        1.9346810149       -4.2414064179
 O        -6.6857466484        1.3482778679       -4.2945787953
 C        -4.3430031922        1.2466924010       -3.5448014788
 C        -4.7431433466       -0.1629808585       -3.1214831404
 C        -5.8289102101       -0.1229811744       -2.0600799324
 O        -5.9567287490        0.8831016283       -1.3243481548
 C        -6.8016037999       -1.3537811303       -1.7908675010
 C        -8.3032033762       -0.8685417952       -2.2215543270
 O        -8.7842526393        0.2248466390       -2.0526847689
 C        -9.2187367228       -1.8823152647       -2.8295678585
 C        -6.5345591854       -2.5639866354       -2.7101945358
 C        -6.6719710411       -1.7994557741       -0.2978982826
 C        -6.1605994090        3.0980491765       -6.3198449957
 C        -3.9973860481        3.8859854248       -5.0577535242
 C       -11.2579993418        4.1394760166       -2.7616880445
 C       -10.7022658787        6.5920159493       -2.5285503051
 C       -10.6635852830        7.8414796904        4.3942448578
 C        -8.4263490890        7.8149977359        2.9815779033
 C       -13.2587207582        1.2163057508        5.1582130416
 C       -10.8550993570        0.7727578656        4.3061928137
 C       -15.0672037562        7.0546122553        1.9311171107
 C       -17.0615077654        5.8392159578        0.6419790813
 H       -14.6953825340        7.1974111582       -2.2826844969
 H       -15.9001822089        7.7516216087       -1.2089298061
 H       -16.0227627207        6.2032150715       -2.0504267225
 H       -13.4055383405        5.2030345659        2.6746655224
 H       -12.8461547220        4.2585104420        1.3241937438
 H       -14.0362619847        2.1826111351        2.4461193888
 H       -14.1928011255        3.0867742788        3.8635295169
 H        -9.6228758668        3.1609844518        4.4386477175
 H        -9.0621728045        3.3613196364        6.0848146166
 H       -10.1186058381        5.4407853397        6.3439110919
 H       -11.1935963982        5.2728917164        4.9600128962
 H       -10.2039236493        4.4242166027        1.7620000826
 H        -8.6283457977        5.3875305428        1.6144347074
 H        -9.7462658576        6.6079696798       -0.1556934131
 H       -11.2127432131        5.6220674506       -0.0878293641
 H        -7.6122501355        6.2460618505       -2.5356102497
 H        -8.3293561227        7.0565313900       -3.9483646974
 H        -5.8588348095        6.2986928909       -4.0792269850
 H        -6.5815144480        5.8747101711       -5.5279201857
 H        -4.0455049023        1.9469255214       -2.6773357735
 H        -3.4840836583        1.4012019472       -4.1628459878
 H        -3.8636561442       -0.7319445963       -2.8697663938
 H        -5.0908042082       -0.6587303315       -4.1048408458
 H       -10.2597502623       -1.6363999106       -2.7478915738
 H        -9.1820050128       -2.9243074070       -2.5698583689
 H        -8.9542647409       -1.6908553229       -3.9297904313
 H        -6.4450041778       -2.2090960328       -3.6944840175
 H        -7.3595324089       -3.2331589499       -2.6170638762
 H        -5.6376882998       -3.0831079162       -2.4155272634
 H        -6.6076001410       -0.9256792369        0.3822482416
 H        -5.8950918158       -2.5076915657       -0.2308566137
 H        -7.6348218480       -2.4257079974       -0.0544508486
 H        -5.9048089895        3.9899676219       -6.8670875598
 H        -7.1887452683        2.8979363328       -6.0868850493
 H        -5.6012981645        2.2617277180       -6.6668151543
 H        -3.5172837659        3.4540198274       -5.9177545997
 H        -3.5021973128        3.6406210604       -4.1637741095
 H        -4.0353765112        4.9742034456       -5.2479732807
 H       -11.6223994348        4.1528110046       -3.7989628475
 H       -12.0122376728        4.5109825564       -2.0754748767
 H       -11.0237811259        3.1320836007       -2.4740297876
 H       -11.0256174734        6.7160283296       -3.5737197105
 H       -10.0609059451        7.4721638436       -2.2859668629
 H       -11.5370029556        6.6262769871       -1.8965561773
 H       -10.0647350772        8.2507289027        5.2509423583
 H       -11.5121050597        7.3066373230        4.7058245497
 H       -10.9337813500        8.7270314212        3.7902996465
 H        -7.8053178607        8.1746701731        3.7299925499
 H        -8.9140921392        8.6304227956        2.4172309810
 H        -7.8658585546        7.1778157356        2.2901691807
 H       -13.1003929362        0.5373146549        5.9871932943
 H       -13.7384627076        0.7703517891        4.3467905744
 H       -13.9520204494        1.8776507665        5.6700748505
 H       -11.3345825122       -0.0717131838        3.8985805107
 H       -10.2148623000        0.3582664989        5.0709805184
 H       -10.1703157174        1.1638379298        3.5971563450
 H       -14.1011205462        6.8190681533        2.3195265569
 H       -15.7755709557        7.1201028472        2.8017097662
 H       -14.9426397775        8.0013070357        1.4002209750
 H       -17.5126966466        5.2008862896        1.4151516188
 H       -17.2509408851        5.4263530169       -0.2914356497
 H       -17.4630315086        6.8489465927        0.7250844412
 Na       -7.8621933793        2.2778812784       -2.3051174770
