117

 C       -15.4086888240        6.9344556973       -1.4327483112
 C       -14.6938612589        6.0841037923       -0.3561946313
 O       -13.5740198097        5.6645855557       -0.4524514555
 C       -15.4582370047        5.8133110689        0.9708915555
 C       -15.0557398754        4.4203547710        1.5229541020
 O       -15.8539055572        3.4878387446        1.3128786097
 C       -13.7399785928        4.1010593713        2.1124130553
 C       -13.6416444281        2.8440773911        2.9079403476
 C       -12.1938316395        2.5708233956        3.2728673881
 O       -11.2489633954        2.8610250472        2.5883801109
 C       -11.8630855540        1.7568751537        4.5646605917
 C       -11.3027466845        2.7831916245        5.7508320629
 O       -11.9214131359        2.9494876166        6.7649545718
 C        -9.9376193208        3.4135327206        5.4744530850
 C       -10.1913739681        4.9560448601        5.2965110850
 C        -9.1356595788        5.7592676979        4.4587390064
 O        -8.0026777848        5.3853597672        4.4779213628
 C        -9.6667872299        6.9872234123        3.6412811415
 C       -10.5120843358        6.4455223065        2.4107381829
 O       -11.5403874838        6.9870207106        2.0747149660
 C        -9.8548783733        5.3116822883        1.5559943095
 C        -9.9440040921        5.7641982340        0.0869691783
 C        -9.6906611229        4.6586067423       -0.9814880827
 O        -9.2560794098        3.5743216519       -0.7735567409
 C       -10.1584432645        5.1261927376       -2.4847810699
 C        -8.8816730513        4.9545791200       -3.4369483334
 O        -8.7093333509        3.8669802365       -3.9723585498
 C        -7.9282809152        6.2017389922       -3.6504577339
 C        -6.6172332417        5.8146171509       -4.3949802474
 C        -6.1212246509        4.4339209566       -3.9225857872
 O        -6.2218976982        4.0841341696       -2.7771953146
 C        -5.4272900018        3.3502871874       -4.9016056171
 C        -5.5643368202        1.9925681063       -4.2415000517
 O        -6.6498432530        1.3925932316       -4.2148267572
 C        -4.4125686237        1.2284128061       -3.5553751430
 C        -4.8021278342       -0.1812471686       -3.1281492142
 C        -5.9252162971       -0.1063970220       -2.1136777073
 O        -6.0960321649        0.8782330566       -1.4410190426
 C        -6.8464873507       -1.3499064316       -1.8787948537
 C        -8.3308835461       -0.8844695805       -2.2030871906
 O        -8.6827336414        0.2371879571       -1.9408839451
 C        -9.3043334322       -1.9156898326       -2.8005807357
 C        -6.3479088091       -2.5182970409       -2.8181125608
 C        -6.6519872258       -1.5562538504       -0.3641954743
 C        -6.1251515478        3.2880806585       -6.3345332304
 C        -3.9683717584        3.7901429672       -5.1274201601
 C       -11.1784056507        4.0850741082       -2.8362944203
 C       -10.5949451133        6.5958405495       -2.5874359059
 C       -10.5857268177        7.9331191204        4.3699935816
 C        -8.5614755584        7.8508753610        2.9883349910
 C       -13.1583060608        1.1777579035        5.1573094443
 C       -10.9053930513        0.5820951861        4.2938712963
 C       -15.0461833080        7.0350644267        1.8764043340
 C       -16.9874161653        5.8674785512        0.7817972460
 H       -14.7463158018        7.2380463688       -2.1492021516
 H       -15.7538937514        7.8450490508       -0.9713259851
 H       -16.1941464541        6.3427972743       -2.0040642049
 H       -13.3973190184        4.9974380268        2.7196531014
 H       -12.9767333263        3.9749344198        1.3599446692
 H       -14.1167804489        1.9939163149        2.3737954283
 H       -14.2528755740        2.8647637187        3.7804553188
 H        -9.4667250023        2.9650765159        4.6026195645
 H        -9.3078864221        3.1970272448        6.3087188963
 H       -10.2354132696        5.4805450362        6.2767088934
 H       -11.2360605035        5.1342959206        4.8229162951
 H       -10.4848460705        4.3670499426        1.6627536165
 H        -8.7756620421        5.1257041187        1.7239854605
 H        -9.1827020937        6.4753841109       -0.0494328915
 H       -10.9448408843        6.1041226023       -0.2276909017
 H        -7.7819362676        6.6842018582       -2.6789744576
 H        -8.5101128939        6.9020933793       -4.3027088898
 H        -5.8960991321        6.6277745084       -4.4086492930
 H        -6.7928796174        5.7411358397       -5.4870235764
 H        -4.1141961341        1.9095486281       -2.7372181922
 H        -3.4777643684        1.3204771171       -4.1867002034
 H        -3.8623349793       -0.6065748418       -2.8056925800
 H        -5.0152952800       -0.7376351112       -4.0877308204
 H       -10.3152706533       -1.9897962009       -2.2798949828
 H        -8.9453803685       -2.8918617940       -2.6657171566
 H        -9.5267008274       -1.7260170251       -3.8607676952
 H        -6.4518250783       -2.2345724722       -3.8589073899
 H        -6.8614774481       -3.4012206578       -2.6185447237
 H        -5.2831411228       -2.7151662603       -2.6234504364
 H        -6.9353791250       -0.6506656490        0.2092812355
 H        -5.6019231196       -1.9201072497       -0.1964384039
 H        -7.3345240833       -2.4148323270       -0.1022371457
 H        -6.0192551962        4.2847860510       -6.6095475913
 H        -7.1314328049        2.9668875721       -6.1766082417
 H        -5.4713621511        2.6977553546       -6.8873677593
 H        -3.5589228866        2.9971240368       -5.8193236673
 H        -3.4735847909        3.7616214966       -4.2021705106
 H        -3.9118320609        4.6964246140       -5.7274142490
 H       -11.4455290532        4.1420789762       -3.8824168908
 H       -12.0334322850        4.2192128468       -2.1628032699
 H       -10.7376213988        3.0588703084       -2.6607893919
 H       -10.7571548558        6.8734215972       -3.6171881512
 H        -9.8475341653        7.2187819712       -2.1586673843
 H       -11.5318456162        6.7992466248       -1.9877697281
 H        -9.9738618375        8.5866032584        5.0800921749
 H       -11.3757848991        7.3267242870        4.9139378210
 H       -11.0057873005        8.6211105650        3.6560282849
 H        -8.3082844445        8.6124698577        3.7271739758
 H        -8.9634525988        8.2553184004        2.1172877812
 H        -7.7066587549        7.2680666970        2.7825027066
 H       -12.9250508691        0.4496140287        5.8911288606
 H       -13.7802554796        0.7453228656        4.3530722243
 H       -13.8258233723        1.8006972218        5.7870799554
 H       -11.5687123397       -0.1974350775        4.0027019748
 H       -10.2912847480        0.1443866633        5.0582708427
 H       -10.2095541143        0.7579799243        3.4630306786
 H       -14.0705607915        6.8112190073        2.4211138454
 H       -15.7502299946        7.2805010038        2.6016283338
 H       -14.8197893576        7.8449552994        1.2303154943
 H       -17.3814612233        5.7232062835        1.7595041312
 H       -17.2832694741        5.0120199164        0.1148089290
 H       -17.3113676658        6.7630004613        0.3766517769
 Na       -7.8221797935        2.3339688993       -2.2580139097
