117

 C       -12.8587354303        2.7125855053        0.5043770607
 C       -13.1719727102        1.9617438381       -0.8013944572
 O       -13.0563263657        2.4912304960       -1.9389990128
 C       -13.3668607804        0.4525022165       -0.5581212639
 C       -11.8418888563       -0.1302134963       -0.5082052708
 O       -11.1940455959        0.1852096017       -1.5513497161
 C       -11.0171543806       -0.7031797640        0.5564903365
 C        -9.6966879609        0.0076225413        0.7295016731
 C        -8.7127163165       -0.8865047033        1.4845267584
 O        -9.0819473673       -1.5894313856        2.2963180007
 C        -7.1633837259       -0.7000195366        1.1404994366
 C        -7.0034736889        0.6486601709        0.3469410564
 O        -6.9573731540        1.7693807642        0.8199441114
 C        -7.0103185016        0.4623462080       -1.1342832982
 C        -6.8323429477        1.8928993361       -1.8596679454
 C        -7.5244368465        2.0011805814       -3.1729625896
 O        -8.7440371177        1.8864480274       -3.2980699520
 C        -6.7574725917        1.8509238363       -4.5213726960
 C        -7.1384737736        3.1378596310       -5.5800074738
 O        -6.2029271254        3.5796468153       -6.2459569589
 C        -8.5559608970        3.5013011187       -5.6849589626
 C        -8.9416410443        4.6703011781       -4.6772802158
 C       -10.4424007071        4.8054022494       -4.3322988941
 O       -11.3778806413        3.9725765226       -4.6501929151
 C       -10.8442469674        6.0333697583       -3.5076127877
 C       -10.0562127805        5.7002808924       -2.2319280054
 O       -10.1906351619        4.6014131121       -1.7144982497
 C        -8.9566966101        6.6208599707       -1.7929896106
 C        -8.0868886658        5.9773895942       -0.6450082808
 C        -7.7848003639        6.8373157420        0.6089217073
 O        -7.3079569439        7.9480200004        0.5206818199
 C        -7.7950754696        5.9251743987        2.0451423008
 C        -9.0821734845        5.1400343510        2.3718240297
 O        -9.6973852951        4.6324752237        1.4498668911
 C        -9.7431524020        5.4703188593        3.6750172430
 C       -11.0885894033        6.3182605621        3.4751913976
 C       -11.5634129880        6.9443927208        4.8029433097
 O       -10.7985077900        7.0376590775        5.7660323697
 C       -13.1268198474        7.2128302357        5.0446770591
 C       -13.9831622773        5.8531822405        4.9651866909
 O       -13.5041986126        4.8336780974        4.6049790192
 C       -15.4926308521        5.9292576515        5.3356222633
 C       -13.2116240296        8.0309688529        6.2648233893
 C       -13.6213515416        8.0142511126        3.7753130628
 C        -6.5710005517        4.9708261794        1.8956466523
 C        -7.4107794238        7.0843255651        3.0779185411
 C       -10.4175098628        7.5242864489       -3.9558633602
 C       -12.3377512828        6.0830323424       -3.1253089130
 C        -5.1990272535        1.9876088130       -4.2195491763
 C        -7.1524539606        0.5158450493       -5.2809776480
 C        -6.5244306818       -0.4786221191        2.5653154887
 C        -6.4387688336       -1.8822326230        0.3455159815
 C       -14.1768377404        0.2016058110        0.7302880197
 C       -13.9123581588       -0.2647920991       -1.8831685678
 H       -13.8085419695        3.1381111603        0.8509498494
 H       -12.2687216491        3.5841638937        0.3753112990
 H       -12.4177378724        2.1729901952        1.2824603732
 H       -10.7859083688       -1.7710011907        0.4238459079
 H       -11.6526178006       -0.5469037374        1.5512365843
 H        -9.9095149582        0.9801730516        0.9097666699
 H        -9.2570226937        0.1883194685       -0.2317955017
 H        -7.9377783347       -0.1185145631       -1.5844500058
 H        -6.0128192014       -0.1770929724       -1.1570424707
 H        -5.8301776695        1.8779783284       -1.9841319149
 H        -6.9271433999        2.7730063889       -1.2135779005
 H        -9.2900423804        2.7150934134       -5.4010133823
 H        -8.6558774224        3.9629581012       -6.6668558088
 H        -8.4882396077        5.5644843495       -5.1520474844
 H        -8.3413201307        4.6145606508       -3.7846669839
 H        -9.1643764211        7.6452373819       -1.6568633600
 H        -8.2684157258        6.7969417534       -2.6668942247
 H        -7.1321990495        5.6848114489       -1.1181757881
 H        -8.6734127706        5.0930607567       -0.3303153412
 H        -8.9713224449        5.8866193284        4.3371569442
 H        -9.9515590959        4.5366933649        4.2876520304
 H       -11.9131111688        5.7449776650        3.0433118633
 H       -10.8937325384        7.0551800198        2.7253614363
 H       -16.3088188435        5.3069618169        4.9567718036
 H       -15.9673436076        7.0095518082        5.1812380150
 H       -15.5246135124        5.8193150319        6.4045789974
 H       -14.1696597487        8.0830136886        6.8200827821
 H       -12.8539492448        9.0335214835        6.0288485438
 H       -12.6287784254        7.5947330853        7.0410299768
 H       -13.6113683401        7.4415324499        2.8602428514
 H       -13.1713689809        9.1201295926        3.7769307714
 H       -14.5723266044        8.3510504395        4.0546141138
 H        -6.1532266306        4.5037036976        2.8968786565
 H        -5.8193918610        5.5408611583        1.3048235014
 H        -6.8651027621        4.1486041181        1.3697082934
 H        -6.9238933316        6.7288114497        3.9075631667
 H        -8.2739174551        7.6259040545        3.4626943573
 H        -6.7094297559        7.8221426264        2.6908446158
 H       -10.0949279078        8.0411313019       -3.1206830846
 H       -11.2864786589        8.1623864279       -4.3031852178
 H        -9.6859704826        7.6259621927       -4.8039450484
 H       -12.3259960111        6.9122194866       -2.4021126126
 H       -12.6358437334        5.2204834239       -2.6046621291
 H       -13.1305124514        6.4014606405       -3.8029293124
 H        -5.0213754988        2.7290087839       -3.5056081892
 H        -4.4965647910        2.0283795096       -5.0384536931
 H        -4.8712772813        1.1789774560       -3.6646850595
 H        -6.6503697910       -0.3134823746       -4.7472155104
 H        -6.6750786136        0.5024421495       -6.2863864324
 H        -8.2428456030        0.4098357816       -5.2455371751
 H        -5.4964304480       -0.4548242099        2.4767475942
 H        -6.6198798786       -1.3711555389        3.2515240401
 H        -7.0690423307        0.3491239914        3.1481563898
 H        -6.4056965951       -2.7213650427        0.9890190658
 H        -5.3902725174       -1.6189777447        0.2290152402
 H        -6.7392338921       -2.0699767089       -0.6711943168
 H       -14.8732528859        0.9781649645        0.8905215655
 H       -13.5844889694        0.0669886375        1.6762692989
 H       -14.5929907339       -0.8094765612        0.5902267211
 H       -14.9610805146        0.0495044660       -1.9647730771
 H       -13.7073683698       -1.3444660435       -1.7030158983
 H       -13.2764662805        0.0313613660       -2.6537627311
 Na      -11.0872862745        2.1869118395       -3.0463000715
