117

 C       -15.3032461080        6.9164513419       -1.3162785543
 C       -14.6383589402        6.0184252199       -0.3094064109
 O       -13.5006617079        5.6608090011       -0.4705563133
 C       -15.4654514889        5.8045730428        1.0672019325
 C       -15.1252219464        4.3523125560        1.5445225932
 O       -15.8954185517        3.4371830294        1.2724168647
 C       -13.7175465240        4.0978259260        2.0840158249
 C       -13.6262648139        2.8090916352        2.8723263044
 C       -12.2263149642        2.4296574122        3.2406235657
 O       -11.3214491877        2.8591146259        2.5919065705
 C       -11.9414264712        1.6094000457        4.5794118714
 C       -11.3031914434        2.6444948951        5.6470290840
 O       -11.9537612868        2.9279160287        6.6189419107
 C        -9.9642895924        3.4446060344        5.4515480560
 C       -10.3151265445        4.9758970013        5.2593888691
 C        -9.1963418254        5.7518190291        4.5518399588
 O        -8.0256471283        5.4514061871        4.4307456721
 C        -9.7058325191        6.9929962239        3.6746374518
 C       -10.4921632466        6.4289259046        2.3654166011
 O       -11.4986666024        6.9706748204        1.9753934949
 C        -9.9043196122        5.3010717336        1.5712558087
 C        -9.8141676971        5.8150694944        0.0974029747
 C        -9.7114661572        4.7371809964       -1.0021052221
 O        -9.3050375182        3.5942800020       -0.7228802913
 C       -10.0874960576        5.0839349886       -2.4378100341
 C        -8.8279064446        4.9285556110       -3.3630482878
 O        -8.7012748466        3.8663095732       -3.9223208752
 C        -7.9819207377        6.1092577250       -3.7591679087
 C        -6.6931868631        5.7533639914       -4.4459517235
 C        -6.0428382142        4.4938986516       -3.9317204385
 O        -6.1040481811        4.2112638874       -2.7432149332
 C        -5.3556615752        3.4503419844       -4.9782772305
 C        -5.5725261310        1.9734742943       -4.2796250519
 O        -6.6974501892        1.4678978954       -4.2100484551
 C        -4.3269804441        1.2865639396       -3.5880735792
 C        -4.7830417042       -0.0860944246       -3.1627153382
 C        -5.9651205154        0.0038182644       -2.2523605940
 O        -6.1639382964        0.9451524599       -1.5309520433
 C        -6.8124434978       -1.3139670833       -2.0112237694
 C        -8.3067335787       -0.9682936045       -2.1681976592
 O        -8.7143957914        0.1648468340       -1.8674808442
 C        -9.3687240517       -1.9114451114       -2.7048342901
 C        -6.2498981225       -2.5356333078       -2.7807730125
 C        -6.7405894455       -1.5337883737       -0.4683758300
 C        -6.1736896115        3.4968141977       -6.3471620095
 C        -3.8605100147        3.7454739074       -5.1601957187
 C       -11.1852802229        4.0741105992       -2.9746308092
 C       -10.5858162469        6.5363561838       -2.6150250431
 C       -10.5902688496        8.0148652822        4.5494059504
 C        -8.5194453006        7.7881093273        3.0201154352
 C       -13.1879745944        1.0175501561        5.3092588965
 C       -10.9238442145        0.5337897799        4.3139195505
 C       -14.9917820728        6.9905789207        1.9140308509
 C       -17.0340839744        5.9329606761        0.9002631196
 H       -14.6073829892        7.1948655499       -2.1580904206
 H       -15.5526613979        7.8757255291       -0.8052826339
 H       -16.1612075025        6.4103828230       -1.7982259760
 H       -13.4200392988        4.9240268609        2.7190052900
 H       -12.9624537963        4.0355608519        1.2887786262
 H       -14.0398933888        1.9509067549        2.2606930322
 H       -14.3122558130        2.7926551866        3.6643292899
 H        -9.2812937126        3.0949285850        4.6482958513
 H        -9.4387649846        3.2767461670        6.3604166773
 H       -10.5925772079        5.5084454853        6.2058908115
 H       -11.1675686253        5.0717912805        4.5859363336
 H       -10.6912105919        4.4826090279        1.5153617939
 H        -8.9606723190        4.9149615518        1.8555094780
 H        -8.7792754252        6.4043768324        0.0198940709
 H       -10.6852757351        6.3581495868       -0.2336234342
 H        -7.7598312059        6.6537357650       -2.7944601057
 H        -8.5687618168        6.8047024355       -4.3728171976
 H        -5.9767075416        6.6307292851       -4.2616808746
 H        -6.7137410244        5.7936676533       -5.4665388239
 H        -3.9918476511        1.9568376710       -2.8477713597
 H        -3.4739183782        1.3275654332       -4.3106855066
 H        -3.8887466926       -0.4865934665       -2.6176840559
 H        -4.8714845022       -0.6505334809       -4.0262625083
 H       -10.1864198913       -1.9852468505       -1.9841191362
 H        -9.0183798288       -2.9739474462       -2.6614127827
 H        -9.7946804764       -1.6582234228       -3.6264189828
 H        -6.5889784709       -2.7149010098       -3.8295370867
 H        -6.5064133762       -3.4059220757       -2.1218176648
 H        -5.1626375684       -2.5291685557       -2.7919940174
 H        -7.3538775557       -0.7534179502       -0.0004149183
 H        -5.6428769975       -1.4416007695       -0.1212491769
 H        -7.1215422289       -2.4641935565       -0.2342899022
 H        -6.2663123481        4.5146138654       -6.6400757088
 H        -7.1002620374        3.0916756441       -6.0395336503
 H        -5.5425110872        2.9351249218       -6.9952037706
 H        -3.4209921747        2.8355238926       -5.5687821493
 H        -3.3862233759        3.9756024668       -4.1480134243
 H        -3.7310504074        4.4319331172       -5.9623656415
 H       -11.3697157521        4.4170966857       -3.9982404951
 H       -12.0956236649        4.0609279409       -2.3546502477
 H       -10.7591771212        3.0570978573       -3.0723652816
 H       -10.7113891811        6.7984744584       -3.6670841001
 H        -9.9874714004        7.2314955228       -2.0506285494
 H       -11.5878718093        6.5642891630       -2.1298566481
 H        -9.9524163028        8.6262246913        5.1673752987
 H       -11.2962452464        7.3718328363        5.1669288869
 H       -11.1221178365        8.7462105866        3.9114691365
 H        -8.4681557798        8.6732736096        3.6630003854
 H        -8.6193890786        7.9473153987        1.9722407620
 H        -7.6363510566        7.2369442557        3.2266477406
 H       -12.9214029356        0.3676725685        6.1536141536
 H       -13.7917313977        0.4474044263        4.5329456509
 H       -13.9002552290        1.6871080224        5.7639629757
 H       -11.4151549056       -0.3695390855        3.8643590593
 H       -10.3831195252        0.1301591024        5.1779634929
 H       -10.1401628489        0.8911890600        3.6265536573
 H       -13.9682179125        6.8972061570        2.2942273997
 H       -15.5872921915        7.1427366532        2.8189637306
 H       -15.0093060165        7.8686825455        1.2818308562
 H       -17.4066893527        6.1535259248        1.8720459477
 H       -17.3254791939        4.9073873421        0.5994162418
 H       -17.4038944970        6.6186081712        0.1229268949
 Na       -7.8190759560        2.4090214737       -2.1812824961
