117

 C       -15.2123708819        6.9282012577       -1.1363227151
 C       -14.4895063388        5.9831343440       -0.1827609969
 O       -13.4204848581        5.4081166969       -0.4079591022
 C       -15.2584852385        5.7200273962        1.1631956893
 C       -15.1459656148        4.2501677284        1.6060812843
 O       -15.9818028073        3.4330698739        1.4058564883
 C       -13.7591568873        3.8559561229        2.1751787750
 C       -13.8478060633        2.5890024037        3.0058224524
 C       -12.4193719529        2.0282557273        3.2328824578
 O       -11.5057864496        2.2657677485        2.4680954662
 C       -11.9757886111        1.3883075510        4.5763374777
 C       -11.5263469449        2.5467836051        5.4791761617
 O       -12.1602852155        2.8234081037        6.4952542321
 C       -10.3171556721        3.4020691072        5.1329367784
 C       -10.6982390856        4.8787128393        4.8679279830
 C        -9.4502602757        5.6562524612        4.4947660363
 O        -8.3050463420        5.2509133972        4.6848939393
 C        -9.6439724931        6.9937055366        3.6797673347
 C       -10.3364361376        6.6346973789        2.3607243795
 O       -11.4631884848        7.0350461756        2.0867050881
 C        -9.7357664943        5.5880788706        1.4403498183
 C       -10.0285890581        6.0891390305        0.0195018707
 C        -9.6671952176        5.0399909666       -1.0460803937
 O        -9.1458823747        3.9884466454       -0.6482234639
 C       -10.1068630916        5.1838402309       -2.5655902097
 C        -8.8349903651        4.9810905105       -3.3870801452
 O        -8.3618138295        3.9159684812       -3.6423064540
 C        -7.9704761879        6.2178259886       -3.6101727990
 C        -6.7747738189        5.9002003151       -4.5253273321
 C        -5.9896811073        4.6508709690       -4.0150521672
 O        -5.7062079619        4.5113076423       -2.8400459741
 C        -5.3822725609        3.6392551064       -5.0683690541
 C        -5.5224312029        2.1705622385       -4.5066009342
 O        -6.6017563284        1.6335303223       -4.4765412399
 C        -4.3034278140        1.4003259698       -3.7771097248
 C        -4.9299828041        0.0813340271       -3.3444610213
 C        -5.9355367688        0.1635421777       -2.1804908653
 O        -6.0872710561        1.1323386428       -1.4701569403
 C        -6.7938583102       -1.1607574415       -1.9486349094
 C        -8.3759908147       -0.9386509547       -2.1935142655
 O        -8.8167410627        0.2011512304       -2.3285186204
 C        -9.3408629440       -2.0710371808       -2.3577288544
 C        -6.2269516431       -2.4155923131       -2.7097460834
 C        -6.6280925388       -1.4425124130       -0.4099076695
 C        -6.0864067305        3.6448735627       -6.5071809853
 C        -3.9051095046        4.1021864825       -5.2180708846
 C       -11.0432837731        3.9473390606       -2.7765893747
 C       -10.8783907172        6.5071669674       -2.8925667251
 C       -10.5341845375        7.9065528630        4.5354692293
 C        -8.2665864745        7.6547723156        3.4354704986
 C       -13.1062944140        0.6166848189        5.1661673102
 C       -10.7668210023        0.3751819321        4.4886061739
 C       -14.7740577679        6.7440541756        2.2485006590
 C       -16.7622728787        6.0165742712        1.0012004651
 H       -14.5997005370        7.2189853188       -2.0619933953
 H       -15.5907219633        7.8014617229       -0.6275607550
 H       -16.0334370710        6.3975691026       -1.4759128000
 H       -13.3950263302        4.6169764614        2.8667298430
 H       -13.0028297809        3.7010537210        1.3777810640
 H       -14.4485716063        1.8656925401        2.3703209161
 H       -14.4347127444        2.7081938902        3.8763924735
 H        -9.8042957280        2.8897486777        4.3223202407
 H        -9.6615831024        3.3491228449        5.9660252513
 H       -11.1848600142        5.2160790329        5.8618538038
 H       -11.3565367985        4.9850903595        3.9756375239
 H       -10.2641692013        4.5737824908        1.5762775588
 H        -8.6884773011        5.3730102662        1.6289203847
 H        -9.4182253305        7.0690524465       -0.2346220154
 H       -11.0508114361        6.2625777213       -0.1219363922
 H        -7.6162795693        6.5085416260       -2.5835594684
 H        -8.5615999339        7.0894419778       -3.8775823989
 H        -6.0350352103        6.7365546013       -4.6601156621
 H        -7.1110321795        5.7236140914       -5.4951038409
 H        -4.1077325697        2.0262534087       -2.8984882046
 H        -3.4289507734        1.4454983797       -4.4926020928
 H        -4.0342517418       -0.5549943658       -3.0152670985
 H        -5.3672089234       -0.2923248564       -4.2124307415
 H        -9.6947452529       -2.3754249794       -1.3696102826
 H        -8.8301615842       -3.0367599533       -2.7128941669
 H       -10.2496707246       -1.8218819433       -2.8929601217
 H        -6.4419711703       -2.5572640934       -3.7433701051
 H        -6.5583103651       -3.3586474325       -2.2324701782
 H        -5.1956568475       -2.3958223696       -2.6203869176
 H        -6.2647082398       -0.4595663902        0.0116541794
 H        -5.7403951690       -2.0701931010       -0.1727544109
 H        -7.5715693271       -1.7636974658        0.0165162009
 H        -5.9236321797        4.6248633094       -6.8462460653
 H        -7.0584953704        3.5000088764       -6.2127461767
 H        -5.5971596207        2.8890279956       -7.0657626681
 H        -3.5538452013        3.6837029179       -6.1257970214
 H        -3.3203003430        3.6284280247       -4.3583630554
 H        -3.8075678459        5.1678287684       -5.1747449933
 H       -11.2626380286        3.8957787525       -3.8603169559
 H       -11.9983302341        3.9613083164       -2.2320680585
 H       -10.4490984158        3.0794895865       -2.5340915315
 H       -10.9599627606        6.6740014728       -3.9639876237
 H       -10.3975469271        7.2961024114       -2.3322906530
 H       -11.8790538487        6.3883840255       -2.5431695888
 H       -10.2525773775        7.9325075945        5.5844233433
 H       -11.5513834352        7.4743059914        4.3877625015
 H       -10.5834060499        8.9992187043        4.1674523500
 H        -8.5008740352        8.4389105551        2.7319585424
 H        -7.5614536695        6.9312065231        3.0447070149
 H        -7.8774001656        8.1068366765        4.3120658206
 H       -12.7650412309        0.1319471511        6.0982279703
 H       -13.5408784859       -0.2474339704        4.6129155909
 H       -13.9089691118        1.2820077686        5.3469047160
 H       -10.8661437876       -0.3774218494        3.7074765567
 H       -10.6342852648       -0.0937120128        5.4398258660
 H        -9.8619027440        0.8524799278        4.2238566945
 H       -13.7772288964        6.7870509929        2.4924008595
 H       -15.3193696357        6.7050070947        3.2229122234
 H       -15.0466272137        7.7133963636        1.8148413570
 H       -17.2137380332        5.4973805482        1.7977919507
 H       -17.1298541653        5.7201372498        0.0756863142
 H       -16.9390027646        7.0928984311        1.1205390599
 Na       -7.9890688532        2.1886155168       -2.1229890886
