117

 C       -15.4379493357        6.8861660001       -1.7979107254
 C       -14.7737250455        6.1603221550       -0.5880547989
 O       -13.6091165089        5.8210773265       -0.7072501780
 C       -15.5107363706        5.8537069724        0.7402717874
 C       -15.0393132794        4.5448617735        1.4539700785
 O       -15.7981426145        3.6226973348        1.5405761733
 C       -13.6145599158        4.3554195172        2.0307712333
 C       -13.5310999024        3.4246054525        3.2244376003
 C       -12.1196767966        2.8088211397        3.4101220632
 O       -11.2381834868        3.0257290678        2.5788152179
 C       -11.8503948585        1.8530992782        4.6931065237
 C       -11.1469783973        2.8802476219        5.7537545305
 O       -11.6749992565        3.0718924137        6.8499883752
 C        -9.8985356573        3.5743983393        5.2799762019
 C       -10.1250159419        5.1181957510        5.3609922646
 C        -9.0558286458        5.8223757435        4.5259507097
 O        -7.9956902889        5.2720283682        4.2881704756
 C        -9.4915638786        7.0759129784        3.6330933955
 C       -10.3178399536        6.4806725545        2.4803219102
 O       -11.5419754225        6.5174029042        2.4750714723
 C        -9.6469618614        5.6116171650        1.4154011659
 C       -10.4791509172        5.5636144302        0.0694738625
 C        -9.7131409517        4.9576854702       -1.1294202261
 O        -8.7813247625        4.2318468597       -0.9758628547
 C       -10.2760055770        5.1730492469       -2.6420497231
 C        -9.0291494497        4.9237208819       -3.5028346920
 O        -8.9082720900        3.8686797279       -4.1234714956
 C        -7.9780214642        6.0042545326       -3.4898145967
 C        -6.7558670045        5.5177120437       -4.3052517597
 C        -6.1961156997        4.1775177451       -3.7988439501
 O        -6.2686981828        3.9200276187       -2.6185773966
 C        -5.5578438804        3.1734235303       -4.8405569962
 C        -5.5927794385        1.7084063069       -4.2740760153
 O        -6.6498633101        1.1035141100       -4.2146404451
 C        -4.3610560679        1.0858031620       -3.5423059661
 C        -4.6929387912       -0.2669017892       -2.8871066727
 C        -5.8459241452       -0.2934932150       -1.8958216128
 O        -6.0967800211        0.6582630489       -1.1605240518
 C        -6.8108268854       -1.4870760597       -1.8634212919
 C        -8.3034233103       -0.9947707945       -2.2795489481
 O        -8.6337689082        0.1447911748       -2.0162889992
 C        -9.2698393159       -1.9755256766       -2.8380092161
 C        -6.2692319522       -2.7526646178       -2.6715976003
 C        -7.1803482560       -1.7020265990       -0.4010058704
 C        -6.2339276461        3.2861870507       -6.2327418437
 C        -4.0238947952        3.6200431240       -5.0288022875
 C       -11.3437846218        4.0596717330       -3.0719540576
 C       -10.8567352323        6.6108653157       -2.8100604025
 C       -10.4490728012        7.9339251934        4.4458284841
 C        -8.2380110813        7.9457111073        3.1435192593
 C       -13.1287433574        1.3245784836        5.2975616871
 C       -10.8399489639        0.6925507602        4.4123747749
 C       -15.1886025845        7.1029476879        1.6345000826
 C       -16.9893577392        5.6728475128        0.4090731180
 H       -14.6711083494        7.4006837314       -2.3994791143
 H       -16.1732824580        7.6749475783       -1.4859724438
 H       -15.9161056756        6.1172225880       -2.4905297943
 H       -13.0565482484        5.3050695220        2.2509903084
 H       -13.0875169210        3.9996710132        1.1884009638
 H       -14.1686926681        2.5278250857        3.0311171172
 H       -14.0158470345        3.9312129790        4.0399036170
 H        -9.6157989469        3.2385371946        4.2935797993
 H        -9.0907626088        3.3691967630        5.9667460246
 H       -10.0877748977        5.4816476794        6.3800491584
 H       -11.1170201557        5.5348999294        5.0376844716
 H        -9.6722518621        4.6305923057        1.9515938384
 H        -8.6086983314        6.0255840814        1.3324883047
 H       -10.8179088046        6.5361696876       -0.1386564351
 H       -11.3216866717        4.8536866365        0.3883442686
 H        -7.7380179150        6.0357738678       -2.4352027512
 H        -8.4270552875        6.9503131064       -3.9084743169
 H        -5.9588066709        6.2334172633       -4.2573855991
 H        -7.0431603425        5.4928866633       -5.4222232181
 H        -4.0033230494        1.8364918600       -2.8297828990
 H        -3.5440176608        1.1507932895       -4.2799223232
 H        -3.8088090530       -0.7072624242       -2.5245513654
 H        -4.8999242997       -0.9624438778       -3.7414083578
 H        -9.7306864714       -1.5731835009       -3.7620841161
 H       -10.0703663116       -2.0020302108       -2.1694726523
 H        -8.8955554104       -3.0346335502       -2.9718846484
 H        -6.3434374786       -2.4562034776       -3.7390431778
 H        -6.8187673280       -3.6504537409       -2.4635352092
 H        -5.1868912397       -2.8486365545       -2.3560838096
 H        -7.5949305480       -0.7744218725       -0.0638322368
 H        -6.3525830048       -2.0325109368        0.1243418645
 H        -7.9390471266       -2.5556237755       -0.2630087354
 H        -6.0628621531        4.3146401527       -6.4533543307
 H        -7.2455892796        2.9577632944       -6.0167845486
 H        -5.6853040539        2.6727495552       -6.9092157229
 H        -3.4559860714        2.7242041074       -5.4430487777
 H        -3.6231476158        3.8978138771       -4.0927792772
 H        -3.9259154702        4.5270597921       -5.6948151953
 H       -11.6808268468        4.3401580316       -4.0615878940
 H       -12.1888848091        4.0376479363       -2.3808473175
 H       -10.8539801645        3.0665574968       -3.0801737663
 H       -10.8874425955        6.9959289864       -3.8334806133
 H       -10.2377361803        7.3506111514       -2.3051633795
 H       -11.8366130313        6.6302783130       -2.3027368331
 H       -10.1360047546        7.9518289927        5.5366230498
 H       -11.4738859709        7.5727296141        4.3772278814
 H       -10.5194783284        8.8795856763        3.9305200659
 H        -7.3479541995        7.5922024040        3.6685870497
 H        -8.4270426273        8.9934906984        3.3552164598
 H        -8.0484556447        7.7441001833        2.0796679137
 H       -12.9372774960        1.1486206009        6.3666824246
 H       -13.6413723895        0.4671706488        4.8478141041
 H       -13.8482849430        2.2161062622        5.3534912751
 H       -11.1458066070       -0.0526106258        3.6775320274
 H       -10.6376800241        0.0794781573        5.3279854779
 H        -9.8107879219        1.0312789859        4.1010112643
 H       -14.2525095771        7.5226585915        1.2252700680
 H       -15.1427559305        6.9175551098        2.7062481868
 H       -15.9495845569        7.8566171374        1.4459436745
 H       -17.4709017642        5.0971674354        1.2346989616
 H       -17.1899529603        5.0898245190       -0.5034413103
 H       -17.3779571413        6.6793243616        0.4210533807
 Na       -7.8691097541        2.3301148011       -2.2205384478
