117

 C       -15.3756867525        6.8020590676       -1.7407030507
 C       -14.6159526958        6.0634280466       -0.6564103926
 O       -13.4414112404        5.7828122123       -0.7626326758
 C       -15.4710299025        5.7234614212        0.6295448685
 C       -15.0154759932        4.4338635279        1.4058948021
 O       -15.8995079114        3.5804033344        1.6220141791
 C       -13.6290364697        4.3686895119        1.9444232458
 C       -13.5274006878        3.5904371070        3.2843558826
 C       -12.1650098654        2.9274125304        3.4304888751
 O       -11.2786227528        2.9933298486        2.6218594278
 C       -11.9545950701        2.0480947702        4.6805855596
 C       -11.1898758593        2.9051768922        5.7825011985
 O       -11.6700138938        3.1126295920        6.8483308479
 C        -9.7981198067        3.6200653617        5.3922541558
 C       -10.0121926335        5.0916384817        5.2753778536
 C        -8.9400529512        5.8588426831        4.3877306433
 O        -7.8530869677        5.3827245227        4.2061042887
 C        -9.3612451327        7.1331696028        3.6309222659
 C       -10.3042118065        6.5775254717        2.4556181281
 O       -11.4981482921        6.5930378400        2.5188029645
 C        -9.6055167224        5.9467863324        1.2055227012
 C       -10.5686045925        5.6359719897        0.0622570273
 C        -9.8292567024        4.9224236306       -1.0875112860
 O        -8.7828254136        4.2653791370       -0.9394957527
 C       -10.4014927477        5.0668000122       -2.6481010355
 C        -9.1236355765        4.8408909440       -3.5374150512
 O        -8.8826378563        3.7838845962       -4.0460093497
 C        -7.9274715259        5.9044366652       -3.5787150792
 C        -6.6375404891        5.5390724606       -4.3027001398
 C        -6.0964505668        4.1660686464       -3.8313000293
 O        -5.9672312477        3.9603182574       -2.6354206116
 C        -5.4455791194        3.0979183806       -4.8027295999
 C        -5.6646096916        1.7106010999       -4.1092088586
 O        -6.7829596923        1.2101926621       -4.1823678452
 C        -4.4580183905        1.0859832834       -3.3523476716
 C        -4.7682069549       -0.2786941660       -2.8052722830
 C        -5.9792598313       -0.2480377301       -1.9079614660
 O        -6.2102907488        0.8194164923       -1.3978439828
 C        -6.9612179473       -1.4562020212       -1.7609697486
 C        -8.3846904226       -1.0350458295       -2.3040993563
 O        -8.7908340715        0.0856987116       -2.4264745259
 C        -9.3045234655       -2.1307960369       -2.9352741484
 C        -6.3929376306       -2.7720049855       -2.4556450410
 C        -7.0625443158       -1.8770379067       -0.2633326627
 C        -6.2500653257        2.9933316656       -6.1469255730
 C        -3.9488980344        3.4658072668       -5.0641350584
 C       -11.5281075868        4.0648958731       -2.8258667788
 C       -10.9721064925        6.4927426260       -2.8712772311
 C       -10.1489560384        8.1313341211        4.5030377829
 C        -8.1283150916        7.8794242413        3.2244811652
 C       -13.2037925309        1.4079116863        5.3811623766
 C       -11.0298601735        0.8634746552        4.2011869254
 C       -15.2612119093        6.9918703210        1.4636291273
 C       -17.0528190085        5.6814813823        0.3935080648
 H       -14.7259133389        7.1171391016       -2.4897444521
 H       -15.9696775530        7.6120636396       -1.3951570583
 H       -16.0619703539        6.0690065977       -2.1481930639
 H       -13.1755964335        5.3209191681        1.8955111743
 H       -12.9996536592        3.8265234179        1.1467039266
 H       -14.2963495657        2.8157984747        3.2511891747
 H       -13.7643568009        4.2437694312        4.1629086379
 H        -9.3521834188        3.2802164649        4.4334666878
 H        -9.1349665460        3.3453165392        6.2156350613
 H       -10.0660151698        5.6290246486        6.2589134328
 H       -11.0052518160        5.3159090523        4.8951015593
 H        -9.1506134442        5.0857546909        1.7073002534
 H        -8.8749917199        6.6523920398        0.8745225453
 H       -11.0721935370        6.6269756706       -0.2064452303
 H       -11.2491791866        4.9428140757        0.4062133681
 H        -7.6391306228        6.1011068558       -2.5278368932
 H        -8.3575729567        6.7301445577       -4.0772526757
 H        -5.8697713245        6.2691302881       -3.8574259891
 H        -6.6631538187        5.6420886536       -5.3367451081
 H        -4.0866614479        1.8336372165       -2.6098239501
 H        -3.6386574159        1.1292908882       -4.0916865753
 H        -3.8099578436       -0.6907101527       -2.3443058948
 H        -4.8248274084       -0.9294616931       -3.6513125376
 H        -8.8006526592       -2.3652353998       -3.8855530049
 H       -10.3735379931       -1.8170052628       -3.1907085481
 H        -9.4221776346       -3.0316638478       -2.3633238812
 H        -6.1567341542       -2.5934991980       -3.4691154599
 H        -7.1584890903       -3.5267249288       -2.3610409192
 H        -5.5943274735       -3.0590866314       -1.8662124437
 H        -7.6565134196       -1.0804602933        0.2430304137
 H        -5.9706503618       -1.9825061212        0.1664824938
 H        -7.5437171029       -2.8089791286       -0.1466654324
 H        -5.9897074801        3.8432475246       -6.7211401057
 H        -7.2229242759        2.7915247235       -5.7830094399
 H        -5.8767821919        2.1026105269       -6.6246055550
 H        -3.5785255526        2.7831720424       -5.7785421284
 H        -3.2694771856        3.4898551026       -4.1591327808
 H        -3.9501998660        4.4654861988       -5.3989978778
 H       -11.8715688337        3.9965545797       -3.8772623260
 H       -12.3781997845        4.3797853488       -2.1998790989
 H       -11.1474412968        3.1256543705       -2.4157737822
 H       -11.2216946343        6.6076235786       -3.9192292369
 H       -10.2449930785        7.2734607776       -2.7276838116
 H       -11.8628090714        6.7213107986       -2.2816545570
 H        -9.4187054341        8.5523559676        5.1372212859
 H       -10.8144183933        7.5529935174        5.1918382771
 H       -10.8364319593        8.7846128664        3.9420912196
 H        -7.2392565746        7.3451372062        3.5729563264
 H        -8.1164667565        8.8618410199        3.6199036205
 H        -8.0246426523        7.8962131432        2.1826681840
 H       -12.8492980860        0.6179018258        6.0760391476
 H       -13.8405054090        0.8501877586        4.6456667082
 H       -13.8403525621        2.1237931681        5.8673798712
 H       -11.5538170516        0.1716333305        3.5286442571
 H       -10.6228395675        0.2709909518        4.9832823824
 H       -10.1967795819        1.2086401706        3.6379761677
 H       -14.2112066963        7.1245794029        1.8127026868
 H       -16.0200211046        6.9429821804        2.2033386406
 H       -15.5490344526        7.8282309042        0.8478423651
 H       -17.5833035387        6.0760482782        1.1967564561
 H       -17.3184185636        4.6139692678        0.3683778784
 H       -17.3682423415        6.1928634662       -0.4847181338
 Na       -7.8075043947        2.3337147314       -2.0500620702
