117

 C       -15.0634528169        6.5245033177       -1.8686188630
 C       -14.5716885044        5.7335623284       -0.6948871322
 O       -13.4739098466        5.2222942679       -0.7616554798
 C       -15.5908364766        5.7622964867        0.5634846205
 C       -15.2241003938        4.4699617415        1.4372982054
 O       -16.0716683441        3.5915120447        1.5636832623
 C       -13.7773762581        4.3924959831        1.8372651082
 C       -13.5345793497        3.6891901753        3.2063743537
 C       -12.1477282632        3.0303151201        3.3856216015
 O       -11.2404297278        3.3033994133        2.6784439002
 C       -11.9346823068        2.1347130893        4.6874820635
 C       -11.0895605717        3.0726019556        5.7203224413
 O       -11.5538670529        3.2833819909        6.8370398163
 C        -9.7687782341        3.7164574789        5.1368417414
 C        -9.9974534754        5.1303235678        4.8465780923
 C        -8.8075466564        5.7661094117        4.1535024416
 O        -7.7223292875        5.2374004775        4.2532838831
 C        -9.0859006882        7.3000023085        3.5151292699
 C        -9.9956777262        7.0303283129        2.2801113424
 O       -11.2098730162        7.0053449769        2.4072495993
 C        -9.3668882272        6.5138367862        0.9677052650
 C       -10.4437516228        5.8082489027        0.1309628000
 C        -9.8188381571        4.7884966715       -0.8827594786
 O        -9.0565529240        3.9052103153       -0.5190177555
 C       -10.1890538503        4.8802121075       -2.4060908226
 C        -8.9351947852        4.6157996463       -3.3043572603
 O        -8.6620040646        3.5471324325       -3.7778628934
 C        -7.9974644608        5.8383372852       -3.5438606157
 C        -6.9100830947        5.3760864940       -4.5331975475
 C        -6.1159456323        4.2262507720       -3.9526969373
 O        -6.0612668144        4.0731571755       -2.7559245628
 C        -5.4384944049        3.1175072493       -4.8768613766
 C        -5.6095826779        1.7128146755       -4.0639878270
 O        -6.7246580891        1.1618929322       -4.0930081280
 C        -4.4595781873        1.1102153535       -3.2234167869
 C        -4.7627032317       -0.3243109300       -2.5809792599
 C        -6.1386879429       -0.2290747742       -1.7752891884
 O        -6.3175017900        0.8288254300       -1.2580508596
 C        -7.1884561102       -1.4090692676       -1.7082378244
 C        -8.5062431803       -1.0519557120       -2.4202905929
 O        -9.0191491642        0.0612356453       -2.4508608338
 C        -9.4613934696       -2.1770224960       -2.7818393545
 C        -6.4577353787       -2.6722572046       -2.1551751959
 C        -7.7362598645       -1.6316719515       -0.2669995378
 C        -6.2498506524        2.7949188285       -6.2276947228
 C        -3.9388839153        3.4356904321       -5.1172247902
 C       -11.3028840778        3.7422138029       -2.6759390897
 C       -10.8337460772        6.2418988473       -2.7480973125
 C        -9.8176953672        8.2193478371        4.5537840714
 C        -7.6417347869        7.8274399539        3.2121377666
 C       -13.2724319171        1.7048947196        5.3247838728
 C       -11.1282980519        0.9069869952        4.3287672371
 C       -15.4731542312        7.0976000526        1.3746217887
 C       -17.1380044127        5.6945091937        0.1210669795
 H       -14.3101285538        6.6498361038       -2.5445484042
 H       -15.5932011947        7.4251535179       -1.5686422146
 H       -15.9012615225        5.8883262159       -2.2855251658
 H       -13.3550506153        5.3620241315        1.8400927295
 H       -13.1815863761        3.8453472265        1.0431946891
 H       -14.2990719272        2.9403608917        3.3660464941
 H       -13.5988862324        4.4726934482        3.9909889049
 H        -9.6034817880        3.2057493571        4.1617307177
 H        -8.9062039027        3.5416358563        5.7224435939
 H       -10.1821886177        5.6305796489        5.8637438627
 H       -10.9063935441        5.3118858334        4.2250461715
 H        -8.5826779719        5.6875993756        1.1564558154
 H        -8.8622872235        7.3584670445        0.4954726761
 H       -11.0444403512        6.5830309215       -0.4533091656
 H       -11.1261432022        5.2774311446        0.6988399996
 H        -7.5749799926        6.0544659979       -2.5244602795
 H        -8.4706766504        6.6914755090       -3.9939236524
 H        -6.2427134261        6.2943963142       -4.5379747560
 H        -7.3070805047        5.1228378856       -5.4517575661
 H        -4.2060167846        1.8649953977       -2.4253297871
 H        -3.5516155441        0.9874833661       -3.9214383369
 H        -3.8873804606       -0.4955333968       -1.8555671712
 H        -4.6370416912       -1.0427529065       -3.3705156229
 H        -9.1793985837       -3.1948789876       -2.3503356523
 H        -9.5359505384       -2.3414027660       -3.8581886093
 H       -10.4474247120       -1.8307988920       -2.6279930273
 H        -6.2215738570       -2.5920874418       -3.2300043880
 H        -7.0634028359       -3.5210106053       -1.8858132860
 H        -5.5605926955       -2.6562870325       -1.5599015182
 H        -8.1544122707       -0.7220688661        0.2076868043
 H        -6.8716323396       -1.9242785520        0.4138152912
 H        -8.5086347445       -2.3940022719       -0.4094311484
 H        -6.0990638290        3.6089518412       -6.8714103597
 H        -7.2178947650        2.5250010164       -5.8596684909
 H        -5.7643520128        1.9470105880       -6.6427361645
 H        -3.3788278100        2.5221741169       -5.4619159884
 H        -3.4348094033        3.7827834738       -4.1835260210
 H        -3.7726379442        4.2404977567       -5.8403550903
 H       -11.7319349349        3.8299571209       -3.6700703912
 H       -12.1130030754        4.0471278959       -2.0061890931
 H       -10.9435979296        2.7212598601       -2.4219888195
 H       -10.8088017366        6.4303979149       -3.8118390222
 H       -10.3593424489        7.0653883215       -2.2728958756
 H       -11.9388338574        6.3200991819       -2.5544443780
 H        -9.4756209883        8.0145088644        5.5907629913
 H       -10.9522861468        8.0038957665        4.4667459308
 H        -9.5656043380        9.2712047634        4.3482953920
 H        -7.2881820242        7.7066593314        2.1639237206
 H        -6.8635187334        7.4912053451        3.8552356823
 H        -7.7132921843        8.8536285352        3.3954170398
 H       -13.0024093908        1.2065515883        6.2473101188
 H       -13.8571466576        0.9331773689        4.7260260951
 H       -13.8606751713        2.6184718589        5.4171831407
 H       -11.6909456096        0.1502949451        3.7088361839
 H       -10.7134696862        0.3796358441        5.1929572176
 H       -10.2517644794        1.1454729769        3.6893031254
 H       -14.4190871977        7.5105638123        1.3313127492
 H       -15.7722338657        6.8788156080        2.3436770386
 H       -16.1664591792        7.7451878944        0.9194954224
 H       -17.7558382340        5.5119497511        0.9504649056
 H       -17.2480711575        4.8829583395       -0.6654912262
 H       -17.4826476327        6.5956780704       -0.3264368236
 Na       -8.0667650412        2.1746792768       -2.0448011305
