117

 C       -15.1145989664        6.5758508266       -2.0785746737
 C       -14.7108527218        5.7263043573       -0.8279429877
 O       -13.5866170522        5.2043876067       -0.8114100974
 C       -15.6144764818        5.6970019691        0.4006427659
 C       -15.1767930505        4.4966929101        1.3635858584
 O       -16.0272607735        3.6924010136        1.7424486494
 C       -13.7694851270        4.4685484599        1.9672286797
 C       -13.6976841345        3.5008518573        3.2041779611
 C       -12.3332838570        2.9827291212        3.4426073429
 O       -11.4489876605        3.2956969562        2.6031593633
 C       -12.0142716228        2.2224601895        4.6927272794
 C       -11.0450680026        3.1589361209        5.6515986401
 O       -11.4790682279        3.3167555605        6.7274253389
 C        -9.7171444313        3.8069187637        5.1499373882
 C       -10.0682383054        5.3017873109        4.7485606342
 C        -8.7455557217        5.8751242676        4.1682041661
 O        -7.7484413774        5.2280308648        4.0382378975
 C        -8.8682904965        7.3716942458        3.5838291542
 C        -9.7845770973        7.0320106320        2.2980596571
 O       -10.9612918394        7.2815648137        2.3565017486
 C        -9.1694306343        6.4438663344        1.0148506463
 C       -10.2125114471        5.5541553295        0.3228532463
 C        -9.7402922795        4.6717657798       -0.8746786292
 O        -9.0405678808        3.7122812842       -0.5892225041
 C       -10.2461885284        4.8522061718       -2.4047176978
 C        -8.9833163415        4.6969220737       -3.3184450872
 O        -8.7046454786        3.5470471210       -3.6840633952
 C        -7.9532912584        5.8427458376       -3.6595513458
 C        -6.8239898344        5.3276774665       -4.5865386948
 C        -6.2105677407        4.0729647200       -3.9743380106
 O        -6.1414473640        3.9740265416       -2.7485517904
 C        -5.5522659726        2.9955409072       -4.9049706017
 C        -5.7258663612        1.6248550430       -4.0667623324
 O        -6.7136212344        0.9699099236       -3.9991004579
 C        -4.5558368029        1.1378968547       -3.1801548882
 C        -5.0049813216       -0.1804226834       -2.5281884229
 C        -6.2251770775       -0.0793525348       -1.6802938587
 O        -6.5225727677        0.9217216038       -1.0031048033
 C        -7.2468335011       -1.3159657758       -1.6033275202
 C        -8.5490711782       -0.9994425132       -2.3957207009
 O        -9.0841873926        0.0587763860       -2.4993419470
 C        -9.3874058687       -2.1301539545       -2.9358368626
 C        -6.7265918246       -2.6552730406       -2.1088299095
 C        -7.5925915075       -1.3772694810       -0.0680387990
 C        -6.0666717211        2.8014342049       -6.3890392719
 C        -4.0285059050        3.3900575632       -4.9772622588
 C       -11.1641577463        3.5976485007       -2.7067093769
 C       -10.9572681444        6.1147336527       -2.7054898236
 C        -9.6115645723        8.2798097096        4.5558522000
 C        -7.4785517707        7.9296191478        3.1563851997
 C       -13.2305021770        1.7630137889        5.5227951407
 C       -11.1739694963        0.9709684022        4.2313790941
 C       -15.2426987578        7.0220399934        1.2187107561
 C       -17.0794065862        5.4841614140       -0.0636208634
 H       -14.1387189872        6.9151822725       -2.5022171126
 H       -15.7059672658        7.4224202985       -1.7264577513
 H       -15.7054167643        6.1421930966       -2.8029768627
 H       -13.3923205657        5.4726779941        2.3544962212
 H       -13.0800228160        4.1832012633        1.1958449681
 H       -14.2942305423        2.5818669932        3.0011215418
 H       -14.0991516666        4.0473544071        4.0503198177
 H        -9.2698176953        3.3429364435        4.2833838316
 H        -8.9598735537        3.6725691952        6.0031057627
 H       -10.4241040020        5.8799004162        5.5516239786
 H       -10.7971915768        5.3086720407        3.9536703168
 H        -8.3024214074        5.9154265909        1.1206154945
 H        -8.8837450738        7.2658405791        0.3336175535
 H       -11.0207155844        6.1545076050        0.0338716848
 H       -10.7428622571        4.7213923885        0.9342338295
 H        -7.6704491484        6.2030433938       -2.6940466137
 H        -8.4608799648        6.6388508478       -4.2491478106
 H        -6.0840234195        6.0934372665       -4.6870969637
 H        -7.2990898494        4.9720656213       -5.5725598530
 H        -4.4949316807        1.8071991877       -2.3220593690
 H        -3.6457184910        1.0162304809       -3.6669686745
 H        -4.1891577809       -0.6011968976       -1.9982354595
 H        -5.3108296979       -0.8654023373       -3.3657083212
 H        -9.6266524807       -2.6648270139       -2.0730757348
 H        -8.9709974856       -2.8897495787       -3.6220682249
 H       -10.2729844980       -1.7537828131       -3.4985667621
 H        -6.3587345152       -2.5605254344       -3.0848187413
 H        -7.5638651206       -3.3590532203       -2.0533197821
 H        -5.9289947574       -2.9634747165       -1.4682592643
 H        -8.1074179212       -0.4949340364        0.3012610451
 H        -6.6289148849       -1.3141684745        0.4136429426
 H        -8.1277579765       -2.2619318227        0.1576446823
 H        -6.0069707914        3.7533998442       -6.9427943031
 H        -7.0564737473        2.4130867086       -6.1995808940
 H        -5.3791751221        2.0448908657       -6.7749998203
 H        -3.3958682890        2.6718313760       -5.4120042046
 H        -3.6283749492        3.5800790570       -3.9772550189
 H        -3.8561656912        4.2669489923       -5.6054748542
 H       -11.3175058834        3.5716195084       -3.8120926273
 H       -12.1472735316        3.6643355650       -2.2258894971
 H       -10.6112156360        2.7217429007       -2.4196885176
 H       -11.4539330831        6.1918144042       -3.6627749177
 H       -10.2949074921        6.9949949710       -2.5502794619
 H       -11.7337615528        6.2780274682       -2.0387040303
 H        -9.2064594345        8.1496278324        5.5448653370
 H       -10.6270044147        8.0560684356        4.5367025856
 H        -9.3702798071        9.3285683494        4.3476609410
 H        -7.2936084372        8.1078132541        2.1510997227
 H        -6.7439315775        7.1420313335        3.3741124585
 H        -7.1370074823        8.8216613516        3.7165459448
 H       -12.8232147025        1.4316041859        6.5092960468
 H       -13.6803085559        0.9465627243        5.0112203130
 H       -13.9204173581        2.5880232244        5.6336702698
 H       -11.6635513537        0.2994618642        3.5743669072
 H       -10.8998233892        0.3948897237        5.1176229692
 H       -10.2273637218        1.2001372923        3.7863894174
 H       -14.2078451607        7.0270026580        1.2752245295
 H       -15.6289597478        6.9202985369        2.2792169755
 H       -15.6045333059        7.8507745914        0.5796461757
 H       -17.6504284177        4.9327678114        0.7001936724
 H       -17.2065717408        5.1050097506       -1.0125157503
 H       -17.5930626853        6.4724172544       -0.1467142504
 Na       -8.1083190770        2.1334244858       -1.8652620834
