117

 C       -15.4304477124        6.8375824271       -1.7487095903
 C       -14.7112335553        6.0687400779       -0.6585028194
 O       -13.4910003125        5.8537401227       -0.7494362785
 C       -15.5230441387        5.8512689780        0.6747798350
 C       -15.0778231166        4.4694642789        1.4584280127
 O       -15.8640017271        3.5757970094        1.5701019787
 C       -13.6103555580        4.3334306337        2.0111829043
 C       -13.5360652547        3.4521527518        3.2884013288
 C       -12.1697961423        2.7733786164        3.4539639446
 O       -11.2485511069        3.0046385790        2.6297229749
 C       -11.8593095603        1.9679025653        4.7233495268
 C       -11.1147618089        2.8930652491        5.7638237681
 O       -11.6607154017        3.0966953957        6.8142060321
 C        -9.8515599412        3.6094298232        5.3596142788
 C       -10.0643526524        5.1084637604        5.3413979273
 C        -9.0073765171        5.8265324470        4.4452278275
 O        -7.9311212591        5.2875265811        4.2478489486
 C        -9.4226624890        7.1237499690        3.7024313740
 C       -10.2601377873        6.5161167627        2.5172721833
 O       -11.4611574067        6.6167315904        2.6296635829
 C        -9.5888053333        5.7138514183        1.2400917977
 C       -10.5299776750        5.5657566422        0.0159753503
 C        -9.8358368375        4.9435882311       -1.1429379941
 O        -8.7720267856        4.3183153986       -1.0082177246
 C       -10.3183180481        5.1239047152       -2.6287201998
 C        -9.0461856057        4.8557401559       -3.5649889223
 O        -8.8802552655        3.7745684975       -4.1377127238
 C        -7.9357803063        5.9596636715       -3.5082991768
 C        -6.6596864908        5.5385907085       -4.2970996621
 C        -6.0769965347        4.1999956535       -3.7733723359
 O        -6.1661897515        3.9174199867       -2.5782837248
 C        -5.5077760933        3.1634075570       -4.8288996135
 C        -5.6848537913        1.7543347406       -4.1682654431
 O        -6.7100237437        1.1353274295       -4.2195983480
 C        -4.4193761903        1.0990964213       -3.4989256177
 C        -4.6981187001       -0.2393752969       -2.8752894154
 C        -5.9240679145       -0.2328464780       -1.9996426625
 O        -6.1318343962        0.7536363100       -1.2401993714
 C        -6.8805147928       -1.4629877585       -1.8545507004
 C        -8.3023292321       -1.0132396177       -2.4141041533
 O        -8.6669261882        0.1060001758       -2.1552006615
 C        -9.2844008470       -2.0559666752       -2.8716031751
 C        -6.3776654154       -2.7818179303       -2.5111611182
 C        -7.1444588602       -1.8554910857       -0.3211639238
 C        -6.2250807736        3.1307903536       -6.2094955898
 C        -3.9925556435        3.4659727900       -5.0342176369
 C       -11.4685515918        4.1103347001       -2.9640403525
 C       -10.9804818092        6.5347677407       -2.7903265798
 C       -10.4428453408        8.0883681534        4.5107037141
 C        -8.1763868392        7.9101760906        3.1386317874
 C       -13.1903709388        1.4079629175        5.2692034931
 C       -10.9327695988        0.7843719627        4.2966189213
 C       -15.1895306685        7.1357627069        1.5341459442
 C       -17.0135554495        5.6308580154        0.3688096756
 H       -14.6798069429        7.4209132145       -2.3915980264
 H       -16.0903984158        7.5624432327       -1.2922486186
 H       -15.9686045310        6.2090610859       -2.3716452175
 H       -13.0590876903        5.2609964077        2.1294480635
 H       -13.0786189188        3.9155621223        1.1335390856
 H       -14.3802465828        2.8134624866        3.3744812764
 H       -13.6262058506        4.2236507029        4.1327793676
 H        -9.5354157120        3.3212894802        4.4090071725
 H        -9.0828571840        3.2992838033        6.1046271624
 H       -10.1158124407        5.6494181084        6.3156992937
 H       -11.0939370525        5.3810613883        4.9297208599
 H        -9.2727806811        4.8130817949        1.7460074236
 H        -8.7037166003        6.4094346359        0.9493465621
 H       -10.8914377939        6.5177132189       -0.1989793889
 H       -11.3229229436        4.8732657178        0.3427895541
 H        -7.7318722113        6.1108551056       -2.4453716637
 H        -8.4205312308        6.8043381127       -4.0185565801
 H        -5.8892655534        6.2832857164       -4.1910933423
 H        -6.9090807534        5.4866933691       -5.4112060155
 H        -4.0574173085        1.8173566784       -2.6464295477
 H        -3.5932537876        1.2111859663       -4.1778952421
 H        -3.8171350286       -0.5053096715       -2.3103054815
 H        -4.6728042098       -1.0537839610       -3.6476588313
 H        -9.3709615012       -2.0405187556       -3.9201070855
 H       -10.3266440016       -1.9681201769       -2.4585178992
 H        -8.8925086158       -3.0716842357       -2.5530413309
 H        -6.1705682336       -2.6242220347       -3.5293938419
 H        -7.1350362988       -3.5671541898       -2.3714059221
 H        -5.5177340543       -3.0538831777       -1.9410091944
 H        -7.8109280199       -1.0373309939        0.1058659380
 H        -6.1837307080       -1.9831267778        0.2037224571
 H        -7.6555704556       -2.8377287636       -0.2322709033
 H        -6.0739537163        4.0937389937       -6.6151507787
 H        -7.1619880571        2.8154686151       -5.8920928884
 H        -5.7458348225        2.3989297668       -6.8084933874
 H        -3.5551037407        2.5814716629       -5.4219892078
 H        -3.4933054137        3.7640642094       -4.0833366321
 H        -3.8638118112        4.3472046099       -5.7124545576
 H       -11.8101396138        4.2247475819       -4.0355491482
 H       -12.3155375707        4.3505477985       -2.2875686995
 H       -11.1267161440        3.1156635665       -2.7181981657
 H       -11.0176577606        6.7462900378       -3.8683250440
 H       -10.4284291157        7.4261830882       -2.4040595348
 H       -11.9290042379        6.5373989166       -2.3847400798
 H        -9.8912085017        8.3307762373        5.4423803994
 H       -11.3806763893        7.6232550018        4.7934940018
 H       -10.7731131578        8.9477157477        3.8205066377
 H        -7.2997488105        7.5290249524        3.5009075933
 H        -8.2536778380        8.9791721633        3.3400895491
 H        -8.1457001351        7.7005220585        2.0858797749
 H       -12.9571613916        0.9803678622        6.3152124956
 H       -13.6555306845        0.6046560862        4.6838449245
 H       -13.9258827492        2.2279342869        5.4304023593
 H       -11.4395891532        0.1590600290        3.5471430549
 H       -10.5928398311        0.0696391091        5.0797617230
 H       -10.0179238965        1.1085236190        3.8098258216
 H       -14.2113443044        7.3578926604        1.3605632873
 H       -15.4677733081        6.9792066025        2.5993116845
 H       -15.7943373692        7.9654266528        1.1849139734
 H       -17.5495869199        5.5701099953        1.3253343357
 H       -17.1453767643        4.7034275672       -0.0361567642
 H       -17.4368418241        6.4567178469       -0.2120986644
 Na       -7.8289184104        2.3409601404       -2.1360771324
