117

 C       -15.2596641625        6.1791744539       -2.2654610353
 C       -14.8230866578        5.5862916094       -0.9861715342
 O       -13.6692789355        5.2166570338       -0.8192812685
 C       -15.7651873240        5.6451349124        0.2758763965
 C       -15.4236031715        4.5491240022        1.4090037494
 O       -16.1316573946        3.6112263666        1.6092808818
 C       -14.1189364350        4.8338329058        2.1428341030
 C       -13.9380171465        3.8631385692        3.3669266692
 C       -12.5104719461        3.1749919784        3.3331596841
 O       -11.9106865991        3.3161323878        2.3099466038
 C       -12.0221929596        2.5287771471        4.6506235530
 C       -11.1988968185        3.7208959948        5.3002288710
 O       -11.6751528969        4.3703541418        6.1955121158
 C        -9.8937025994        4.0196304675        4.6044474541
 C        -9.5123284722        5.5262333811        4.7378742940
 C        -8.2922634379        5.9229866634        3.8889623909
 O        -7.3393116894        5.2012840998        3.7168308426
 C        -8.2160920430        7.3650300021        3.1835531026
 C        -9.0449270930        7.0884218207        1.9239308516
 O       -10.1047386539        7.6542706020        1.6992265214
 C        -8.6206974930        6.1113169320        0.7770010246
 C        -9.8687249638        5.3380028958        0.3031996069
 C        -9.5800873114        4.4184832386       -0.8491621464
 O        -8.8915056494        3.4290592501       -0.6842782932
 C       -10.3425702994        4.6685537156       -2.1675445242
 C        -9.2712861168        4.5101992643       -3.2890567830
 O        -9.2146360337        3.4260619333       -3.8227091754
 C        -8.1667389462        5.5742650032       -3.5418583126
 C        -7.0790337123        5.0983846086       -4.5030383572
 C        -6.2840722869        3.8768335795       -3.8977103227
 O        -6.2301420538        3.8545348342       -2.7057305313
 C        -5.4180417783        2.7729856197       -4.6518401838
 C        -5.7346575747        1.4119572862       -3.9277891531
 O        -6.9081806757        0.9868136344       -4.0667153134
 C        -4.7500422419        0.7215395401       -3.0081440719
 C        -5.3013735847       -0.5451093221       -2.3545141737
 C        -6.4374636629       -0.2513410790       -1.3124629585
 O        -6.3706204624        0.8643548072       -0.7556798023
 C        -7.4951778287       -1.3195636343       -1.0585607660
 C        -8.6658113295       -1.0691761973       -2.1631917358
 O        -9.2188737234        0.0338437436       -2.1397415804
 C        -9.1964338503       -2.1027330341       -3.0690315267
 C        -6.8465288419       -2.7113761548       -1.0260011197
 C        -8.2277065786       -1.0424305540        0.2546089818
 C        -5.9235841535        2.7434255645       -6.0793786870
 C        -3.9263832362        3.0979149130       -4.4650560385
 C       -11.4844103298        3.6237509824       -2.3118083043
 C       -10.9627479187        6.0902966460       -2.2923881285
 C        -8.9557633589        8.4447730238        3.9969800933
 C        -6.7730551287        7.8064114303        2.9200744231
 C       -13.1682696644        2.0517176930        5.6015940542
 C       -11.0857528229        1.3271939830        4.3465311034
 C       -15.7070798350        7.1036899417        0.9688696498
 C       -17.2403339143        5.4901145887       -0.0606453758
 H       -14.5540709060        5.8956850491       -3.0597285257
 H       -15.2046044233        7.1915670452       -2.1552815910
 H       -16.2223238784        5.8221295987       -2.5647072863
 H       -14.0494596060        5.8655522890        2.4204101651
 H       -13.3137902322        4.5734007461        1.3887119878
 H       -14.7723435545        3.1718682180        3.4302764170
 H       -14.0104491062        4.3995804570        4.3713860422
 H       -10.0987568672        3.7208600315        3.5162923625
 H        -9.1015739090        3.3713501882        5.0425943127
 H        -9.2417672134        5.7623103164        5.7650821113
 H       -10.3939328129        6.1361264094        4.4906209202
 H        -7.7588623380        5.4542821165        1.0803133634
 H        -8.2730548134        6.6643963058       -0.0128943081
 H       -10.6595971149        6.1449724261        0.1275167511
 H       -10.2175775250        4.8085510377        1.1548089006
 H        -7.7202415568        5.8097788144       -2.5445453029
 H        -8.4463427850        6.5703304432       -3.7692268873
 H        -6.3193417997        5.9227318819       -4.6620529527
 H        -7.3980629829        4.8640591300       -5.4728240676
 H        -4.3557408594        1.3494501081       -2.2384434383
 H        -4.0078814622        0.3194752659       -3.6779572613
 H        -4.4893674655       -1.1200901403       -1.8255545252
 H        -5.6649792253       -1.2267762220       -3.1251034852
 H        -8.4236503595       -2.3811847832       -3.8868464022
 H       -10.0866258724       -1.6391985912       -3.4493793020
 H        -9.4994485210       -3.0738709315       -2.6793055509
 H        -6.2058082370       -2.9756839068       -1.8878430386
 H        -7.6017209536       -3.4539622833       -1.0603113344
 H        -6.2984025369       -2.9107904261       -0.1190402564
 H        -8.7658952831       -0.0766417468        0.2793880661
 H        -7.5585265400       -1.1056266429        1.0663531434
 H        -8.9639840156       -1.9205886894        0.5100398711
 H        -5.5782327318        3.6229961829       -6.5796158574
 H        -6.9876857742        2.5758209665       -5.9956046730
 H        -5.4970395839        1.8871408404       -6.5679602486
 H        -3.2313058778        2.2891609074       -4.8124528016
 H        -3.6055888027        3.2929865455       -3.4925632606
 H        -3.6287719300        3.9970703325       -4.9157266791
 H       -11.7310457618        3.7375963218       -3.3568652815
 H       -12.3453533769        3.9213521981       -1.7107256115
 H       -11.1893700906        2.5630340887       -2.1265547730
 H       -11.1416407590        6.3356401619       -3.3367121021
 H       -10.4256502949        6.9080803353       -1.8676677649
 H       -11.9930841751        6.1314161779       -1.8011556656
 H        -8.6642972535        8.3979926639        5.0989509190
 H       -10.0806462532        8.3271272288        3.9836472038
 H        -8.8318917439        9.4311879136        3.5962927218
 H        -6.1236829640        7.3803704808        3.7085121518
 H        -6.6365218501        8.8651016997        2.9563788430
 H        -6.3343861663        7.5793471946        2.0144654896
 H       -12.7380973899        1.3171953889        6.2599144761
 H       -13.9282791855        1.5286647426        4.9428878080
 H       -13.5504926218        2.9502736087        6.1106146495
 H       -11.5711282492        0.5091589978        3.7394972564
 H       -10.8380439807        0.8772731141        5.3153676931
 H       -10.1435800889        1.5394271634        3.7945778637
 H       -14.6608912373        7.4333365245        1.0841137205
 H       -16.2686828917        6.9679500250        1.8323144830
 H       -16.2626789594        7.7680047712        0.3691618183
 H       -17.8854148377        5.2669507640        0.7456165374
 H       -17.4594782573        4.6933706279       -0.8002052664
 H       -17.6146032337        6.3666337653       -0.4648023292
 Na       -7.9688459667        2.0501362849       -2.1105979361
