117

 C       -15.8609779385        5.6870754397       -2.3221050918
 C       -15.3570535661        5.9314877053       -0.8231461656
 O       -14.1670986099        6.1410708288       -0.6539147046
 C       -16.3155491979        5.8492979621        0.3815831350
 C       -15.7206613801        4.7080803934        1.3889339478
 O       -16.4162808969        3.7722539298        1.6044112198
 C       -14.3351398919        4.8730621281        1.9048652919
 C       -14.0603810885        4.1646219373        3.1999398213
 C       -12.6948740640        3.5065998946        3.2725648860
 O       -11.9951792243        3.4424993378        2.2236970170
 C       -12.0219291773        3.0278619541        4.5953193512
 C       -11.2155134519        4.2862682232        5.0799302988
 O       -11.8182669151        5.2219886128        5.5817140541
 C        -9.8174415608        4.4952901653        4.5080179228
 C        -9.2623524597        5.9147907929        4.6971609982
 C        -7.9615741221        6.0415666749        3.8491949713
 O        -7.1269406530        5.1674572027        3.9494086967
 C        -7.6540218295        7.2963758754        2.9118721561
 C        -8.7564439113        7.2034472157        1.8048868798
 O        -9.7815734655        7.8602205656        1.8926949261
 C        -8.5211005036        6.2740593576        0.6081034747
 C        -9.8732469388        5.7177922969        0.1720123307
 C        -9.7698396329        4.6538717555       -0.9514817294
 O        -9.2602682505        3.5603998087       -0.6624944991
 C       -10.3831132283        4.8206814196       -2.3893666375
 C        -9.2574314030        4.2910222836       -3.3399854343
 O        -9.3715306212        3.1641227404       -3.7758395313
 C        -8.0845411850        5.2106418382       -3.4766299613
 C        -7.0056709014        4.5404553763       -4.3240322091
 C        -6.1879683906        3.4809567460       -3.5622463108
 O        -6.3601731833        3.3893717691       -2.3260988704
 C        -5.1743446689        2.5894993144       -4.3485564364
 C        -5.6873322321        1.0997629832       -3.8790118707
 O        -6.8220660658        0.7671929888       -3.9997813080
 C        -4.7370751679        0.1260696804       -3.1928117258
 C        -5.3721883747       -1.0392233972       -2.4318191440
 C        -6.4645425842       -0.4881830827       -1.4881667606
 O        -6.4680548200        0.6042462104       -1.0138695302
 C        -7.4295138549       -1.5141793294       -0.8385240057
 C        -8.6276870099       -1.5888696066       -1.9924521632
 O        -8.9538473119       -0.5172127890       -2.5329624141
 C        -9.2017307295       -2.9083312494       -2.3702095745
 C        -6.7349023694       -2.8378213543       -0.4718901039
 C        -8.0097989768       -0.9009802070        0.4304580183
 C        -5.2406830647        2.7466391974       -5.9407081170
 C        -3.8388972497        3.0192066872       -3.9012376882
 C       -11.5939327334        3.7867527962       -2.3700317255
 C       -10.8579092809        6.2677620294       -2.5887471600
 C        -7.8519752813        8.5902130324        3.7021304495
 C        -6.2791425050        7.1279420809        2.2473526717
 C       -13.0728426969        2.7374205838        5.7334669916
 C       -11.0416425144        1.8259204105        4.2428950974
 C       -16.2693954156        7.2293307193        1.1325375945
 C       -17.7145138215        5.3169765450        0.0975942227
 H       -15.0216554378        5.4704853167       -2.8490832248
 H       -16.3481132107        6.6185936649       -2.7547692933
 H       -16.6122742087        4.9121569370       -2.3268675558
 H       -13.9420067073        5.8474191308        1.7608002884
 H       -13.6614137503        4.3141732131        1.2112763262
 H       -14.8293382029        3.3800036644        3.2726393949
 H       -14.2136844806        4.8233883403        4.0633878558
 H        -9.9245973882        4.1695305299        3.4165891116
 H        -9.0487088123        3.7810621950        4.8843682301
 H        -8.8270322540        6.0055357602        5.7488695626
 H        -9.9261251413        6.7403250718        4.5424666773
 H        -8.0465982953        5.4058926274        0.9080499388
 H        -7.9923012737        6.7904285891       -0.1678651953
 H       -10.3977004379        6.5644157501       -0.1771089454
 H       -10.2435996586        5.2689059641        1.1314384513
 H        -7.7449923923        5.3154451906       -2.4571594285
 H        -8.2731096301        6.1717899742       -3.9756834141
 H        -6.3533420532        5.2214320419       -4.8063911397
 H        -7.5697344617        3.9465567576       -5.1614698651
 H        -4.0950127392        0.7068899352       -2.5841797225
 H        -3.9661872819       -0.2672062176       -3.8745282892
 H        -4.8043150847       -1.6647656898       -1.6826276553
 H        -5.8571511653       -1.7673421785       -3.1190850556
 H       -10.1739561494       -3.0615288599       -1.9472050509
 H        -8.6116290504       -3.7500485819       -1.8815546678
 H        -9.2453438631       -3.0557912976       -3.4556244588
 H        -6.3877157563       -3.4925359385       -1.2657313913
 H        -7.4189396564       -3.4976249565        0.1503812350
 H        -5.8905100556       -2.6989624202        0.2477100615
 H        -8.3466296825        0.1689312761        0.4010494897
 H        -7.2078087225       -0.9351731163        1.2792972429
 H        -8.8568116396       -1.4936142530        0.7908813818
 H        -5.1744102539        3.8220048393       -6.1812205136
 H        -6.2084085454        2.4632509451       -6.3527045967
 H        -4.3993068173        2.1696176639       -6.3210645127
 H        -3.0043628485        2.5677972186       -4.3370017533
 H        -3.6678056860        2.9323848743       -2.7665639526
 H        -3.7246270835        4.1024585535       -4.2362737793
 H       -11.9863067483        3.7654317401       -3.3871509245
 H       -12.3989687007        4.1104013828       -1.7304554526
 H       -11.2521213928        2.8210120897       -2.1071448102
 H       -11.0354979206        6.4419760040       -3.6649403305
 H       -10.1211850900        7.0853549145       -2.3746903829
 H       -11.7590409218        6.3476867137       -2.0681780564
 H        -7.1303711193        8.7135976406        4.4578483107
 H        -8.8686454774        8.7207486850        4.0686137868
 H        -7.6406783678        9.4399966558        2.9856511093
 H        -5.9752584423        8.0984435697        1.8375348565
 H        -6.3750302684        6.3500158232        1.4493663569
 H        -5.4041639978        6.8478580401        2.9258386484
 H       -12.7167302937        2.1705716225        6.6424023606
 H       -13.8610300171        2.2525243678        5.2182531691
 H       -13.4163746299        3.6931236077        6.1375901818
 H       -11.5507762571        0.9142068330        4.2191842964
 H       -10.3503302099        1.7281256707        5.0747371279
 H       -10.5020414030        1.9994262435        3.3254624405
 H       -15.2650471841        7.5611762891        1.3642596946
 H       -16.7444622049        6.9427777316        2.0869669552
 H       -16.8545989841        7.9520046124        0.5662321110
 H       -18.2979400651        5.2369113500        1.0105508791
 H       -17.6645663881        4.2817055242       -0.2613249291
 H       -18.2627482611        5.8802287807       -0.6935120528
 Na       -8.2207520068        1.8026051976       -2.1576443748
