117

 C       -15.7508036780        5.8593021804       -2.2976065688
 C       -15.1628676142        5.8271072154       -0.8662923078
 O       -13.9827168151        5.8218942258       -0.6426985345
 C       -16.1557759613        5.7759354638        0.3563133618
 C       -15.6459950114        4.6465987909        1.3986840389
 O       -16.2214779586        3.6294056316        1.5911217009
 C       -14.3554548978        5.0105087360        2.1257616828
 C       -13.9833992996        4.1302278988        3.3139798860
 C       -12.7159025080        3.3892216854        3.2382329668
 O       -12.1292435645        3.2409167068        2.1541984674
 C       -12.0174692311        2.8889471898        4.6386125990
 C       -11.2422855726        4.1384293216        5.1548961982
 O       -11.8310782756        5.0419855255        5.7207736744
 C        -9.8172466632        4.3059156691        4.6181992169
 C        -9.3392457090        5.8016555433        4.6137041294
 C        -8.0032236401        5.9974388361        3.8388282799
 O        -7.1534906257        5.1277124706        3.8209154730
 C        -7.8264585707        7.3674184008        2.9965021890
 C        -8.9213412635        7.3644443911        1.8734248692
 O        -9.8423652940        8.1495151598        1.9823374959
 C        -8.7986180702        6.1841437200        0.8494286984
 C       -10.1509202035        5.5240676451        0.3276446161
 C        -9.7292314429        4.5361328156       -0.7710156479
 O        -8.9733327762        3.6326075356       -0.5017194050
 C       -10.2526228936        4.7131748742       -2.2600294623
 C        -9.0355035992        4.3611964632       -3.2770466598
 O        -8.9519814957        3.2095654502       -3.6750430623
 C        -8.0718865926        5.4260632861       -3.6653856997
 C        -6.8870481598        4.8751114052       -4.4843901907
 C        -6.2215798201        3.7167528209       -3.6840650158
 O        -6.5964273703        3.5678024771       -2.5016012688
 C        -5.2932610284        2.6347111714       -4.3950264276
 C        -5.6170198547        1.1604428962       -3.8770950084
 O        -6.7083642269        0.6976041743       -4.0096597615
 C        -4.5600845130        0.3579446087       -3.1965952826
 C        -5.1881991664       -0.8737794675       -2.5012914762
 C        -6.4064562770       -0.3582836205       -1.5713383563
 O        -6.4160649336        0.8242232862       -1.2199420523
 C        -7.5252883117       -1.3661188136       -1.1700453476
 C        -8.6096421311       -1.4681329269       -2.1381371017
 O        -9.1966154967       -0.4417722553       -2.5018568857
 C        -9.1916790280       -2.8070053536       -2.3710533221
 C        -6.9472480936       -2.7262222914       -0.6726519165
 C        -8.2115700108       -0.7442986985        0.0946861819
 C        -5.3572622868        2.4857360091       -5.9298264160
 C        -3.8539028014        3.0122119574       -4.1543904821
 C       -11.3801965414        3.5697414129       -2.4649040809
 C       -10.9579721678        6.0942477488       -2.5880436903
 C        -8.0662226106        8.4871343345        4.0095223767
 C        -6.4018747884        7.4558147827        2.3977094870
 C       -13.1183047656        2.3896425178        5.7207314129
 C       -11.0633430344        1.6829665794        4.3494857510
 C       -16.0370816730        7.1471806570        1.1150768072
 C       -17.6545914931        5.3819787482       -0.0004226083
 H       -15.0565033798        6.4071447045       -2.8446684084
 H       -16.7125279725        6.3971634544       -2.2873754464
 H       -15.8745466834        4.8262012618       -2.7163777964
 H       -14.3929167628        6.0929383635        2.4891863960
 H       -13.5715499583        5.0482546538        1.3720336834
 H       -14.7773029497        3.3155654420        3.3120290888
 H       -14.1345586940        4.6201956015        4.2470055115
 H        -9.8562132080        3.9419624336        3.6169172870
 H        -9.1078871338        3.6732753629        5.2134012048
 H        -9.2719414049        6.2252464483        5.6109775319
 H       -10.0593196470        6.4680154638        4.1783557764
 H        -8.2339599708        5.3789046393        1.2013571910
 H        -8.3079395619        6.5913466068       -0.1258615103
 H       -10.7695122928        6.2927791379        0.0062645591
 H       -10.5102788952        4.8035313977        1.1001308387
 H        -7.6401301460        5.9679592948       -2.8245227747
 H        -8.5831928157        6.2043817646       -4.2988577432
 H        -6.1349978075        5.6768221598       -4.6596899836
 H        -7.0728197732        4.4755603952       -5.4701716664
 H        -3.8841997123        0.9090071936       -2.4693536802
 H        -3.8510022243        0.0231099785       -3.9241355811
 H        -4.4942050176       -1.4880107981       -2.0000059328
 H        -5.7094519185       -1.5632648713       -3.1639081820
 H       -10.0810293824       -2.8916938466       -1.7192956161
 H        -8.5311579863       -3.6549170188       -2.0814318625
 H        -9.4538105724       -3.0304108834       -3.3495177598
 H        -6.4847111956       -3.2429582522       -1.4699219900
 H        -7.6530002552       -3.4695885336       -0.2963208268
 H        -6.1825959956       -2.6497975570        0.0441159346
 H        -8.9424676936       -0.0404975264       -0.1305833385
 H        -7.5228223202       -0.1998102742        0.7285155669
 H        -8.7908582709       -1.5020114795        0.5970728552
 H        -5.0176252587        3.4067734082       -6.4515235958
 H        -6.4051638404        2.2880470148       -6.1720666580
 H        -4.7760568627        1.6139996387       -6.2344865921
 H        -3.2019709684        2.2935607537       -4.5410904173
 H        -3.5273017537        3.0825469647       -3.1031126892
 H        -3.5352236311        3.8803776541       -4.6872930840
 H       -11.7729053751        3.5102115784       -3.5193349654
 H       -12.2432744279        3.8095512243       -1.8242407889
 H       -10.9689090722        2.6335248876       -2.1392673173
 H       -11.2580103823        6.0965091578       -3.6448536092
 H       -10.2830394490        6.9799030091       -2.4109543313
 H       -11.8556083068        6.2322744065       -2.0430717002
 H        -7.4615996773        8.3516123555        4.8826838901
 H        -9.1316021036        8.4003669540        4.3315438355
 H        -7.7899273485        9.5067227065        3.6656884391
 H        -6.3209973248        7.4560578600        1.3323252597
 H        -5.7942365827        6.6720575882        2.8238047907
 H        -5.9196761719        8.3541775795        2.6849315525
 H       -12.5489951394        2.0822709573        6.6442547893
 H       -13.6303567074        1.4906347969        5.3492041242
 H       -13.8042327098        3.1849877992        5.9423600508
 H       -11.6195411759        0.8476745100        3.8770913148
 H       -10.4951279993        1.3222934837        5.2586250898
 H       -10.2641195112        2.0047232280        3.6673426385
 H       -14.9339593992        7.3760381109        1.1982981444
 H       -16.4278994295        7.0177321984        2.0877638814
 H       -16.5302295205        7.8853300383        0.5341908877
 H       -18.1368564025        4.9354304410        0.8070008858
 H       -17.7112694012        4.6638746039       -0.8701923735
 H       -18.2629372064        6.1928572975       -0.3744445636
 Na       -8.4061050723        1.7588357163       -1.9164850708
