117

 C       -15.5917193037        6.0542826013       -2.1768881426
 C       -15.0013722412        5.7459062769       -0.8145363519
 O       -13.8343605478        5.4913821688       -0.7462207056
 C       -16.0085684443        5.7463370262        0.4284357283
 C       -15.4745753715        4.7497221236        1.4518775902
 O       -16.0534201229        3.7156639430        1.5004970809
 C       -14.1846397335        5.0122919964        2.2141572534
 C       -13.9733431803        3.8840932468        3.2899811632
 C       -12.5848195237        3.2420828789        3.2554063130
 O       -11.9774778516        3.1317940879        2.2145921899
 C       -12.0299441173        2.6288410909        4.6716521071
 C       -11.1684551417        3.8799031697        5.2185269830
 O       -11.7207643113        4.7416883391        5.8649645291
 C        -9.8039142075        4.1634070423        4.5814035441
 C        -9.5032442091        5.6188515345        4.6280201806
 C        -8.2198902524        6.0064332625        3.8717058130
 O        -7.3701033679        5.1518503385        3.6925529784
 C        -8.0386512492        7.3669381188        3.1716079341
 C        -9.0323749313        7.2818899858        1.9325314004
 O       -10.0515442867        7.9475530313        1.8291308859
 C        -8.6622329316        6.1711008351        0.9089929288
 C        -9.9610721544        5.4997423281        0.2957716491
 C        -9.6057142570        4.3581830970       -0.7305269275
 O        -9.0162733645        3.3787793318       -0.3824072841
 C       -10.1014494873        4.6143600098       -2.2090855235
 C        -9.0393361225        4.3380664919       -3.3242705053
 O        -8.9551116613        3.2120303366       -3.8011010252
 C        -8.1390135999        5.4422990319       -3.8594287168
 C        -6.9310489284        4.8652409438       -4.4575257590
 C        -6.2704871660        3.7092525594       -3.6827992810
 O        -6.3317908900        3.6106801408       -2.4612338087
 C        -5.3902781362        2.7332004064       -4.5016781612
 C        -5.7155424320        1.2952237973       -3.8924289641
 O        -6.8767738805        0.9038158418       -3.9955348127
 C        -4.6652637661        0.5431757826       -3.1430785331
 C        -5.2570039906       -0.6677544452       -2.4429361251
 C        -6.4689347878       -0.2415870665       -1.5087330428
 O        -6.5751595657        0.9699674327       -1.0870285463
 C        -7.4796433106       -1.2208689307       -1.0164303102
 C        -8.6606195514       -1.2223192434       -2.1463257733
 O        -9.1102748474       -0.1506923243       -2.4552184458
 C        -9.1703669664       -2.4997673731       -2.8232048437
 C        -7.0373632295       -2.7282147955       -0.8899389020
 C        -8.0719885026       -0.7779341377        0.3269704003
 C        -5.7918156605        2.6905650752       -6.0075170899
 C        -3.9625346543        3.2122228923       -4.3256862975
 C       -11.2827236152        3.5675747467       -2.3499364387
 C       -10.7562412485        6.0019569271       -2.5156450589
 C        -8.4559845501        8.5254216173        4.0954022116
 C        -6.5864196578        7.5940544957        2.7224625817
 C       -13.0320644586        2.2761600461        5.8439981715
 C       -11.0986876881        1.4131517892        4.3364653819
 C       -16.0457825707        7.2564988987        0.7912670884
 C       -17.4560929548        5.3380882782       -0.0563614842
 H       -14.8791286916        6.3868419505       -2.9344209911
 H       -16.2847946975        6.8695625545       -2.0198593173
 H       -16.0910439221        5.0811252367       -2.5336414980
 H       -14.2714346582        6.0160989144        2.7263234836
 H       -13.3767719991        5.0600013813        1.5372843706
 H       -14.6959089231        3.0841454373        3.0669180679
 H       -14.2816770727        4.1708609266        4.2932296330
 H        -9.9947373683        3.8839445714        3.5872315563
 H        -9.0281177824        3.5470339905        5.0467834116
 H        -9.5152831479        5.9810465598        5.6546297927
 H       -10.4021930159        6.2010240380        4.2365152790
 H        -8.0585795371        5.3516241942        1.3146519068
 H        -8.0731267997        6.6216973447        0.0584005497
 H       -10.4940708416        6.3368868223       -0.1837199915
 H       -10.5298761494        5.0255191904        1.1172874221
 H        -7.9146460435        6.1915946680       -3.0707247415
 H        -8.6154123978        6.1214917103       -4.5817962646
 H        -6.0024631821        5.5171442824       -4.6151049600
 H        -7.1188305737        4.5575903390       -5.4096404034
 H        -4.0917449643        1.2418815692       -2.4076114079
 H        -3.9585463842        0.1175278499       -3.8348625253
 H        -4.5969608276       -1.2810169003       -1.8318709842
 H        -5.5809294932       -1.3949586771       -3.2343368446
 H        -8.8870423540       -3.4559850613       -2.2836673592
 H        -8.9232163843       -2.5505549234       -3.8782951147
 H       -10.2033733875       -2.5222251681       -2.8746135901
 H        -6.8028513528       -3.3630555501       -1.7741210627
 H        -7.8335000525       -3.2707103809       -0.3396630441
 H        -6.1587981937       -2.9114908935       -0.2860115652
 H        -8.2501918568        0.2618200558        0.5021524859
 H        -7.3492902814       -1.0233639017        1.0704108756
 H        -9.0660302484       -1.3296625620        0.5193848833
 H        -5.5968888478        3.6486215787       -6.4966597468
 H        -6.7778916941        2.1750122142       -6.0502052685
 H        -5.0683513126        2.0126321532       -6.5264554509
 H        -3.1570810329        2.5938680434       -4.8151850161
 H        -3.5998340311        3.2574094932       -3.2710304646
 H        -3.7728563219        4.2371626533       -4.6502340656
 H       -11.7485765657        3.6947214865       -3.3256573316
 H       -12.0126262849        3.8332457972       -1.6041706631
 H       -10.9623224957        2.5592832044       -2.1957344673
 H       -11.2018030444        5.9610130855       -3.4992519734
 H       -10.0866636521        6.8460079176       -2.4042636900
 H       -11.6499011536        6.2348966787       -1.9190086381
 H        -7.6860165981        8.7920028643        4.7901305184
 H        -9.3347102935        8.2442738416        4.6835076714
 H        -8.6850730302        9.3926072107        3.5537662656
 H        -5.9951630504        6.6432343146        2.4375065235
 H        -5.9475563989        8.2064886724        3.4031279713
 H        -6.6035188563        8.1991535849        1.8190401575
 H       -12.3924642976        1.6378580856        6.4095650750
 H       -13.7908255134        1.5494251520        5.5124252311
 H       -13.4150113910        3.1195908071        6.3294092561
 H       -11.6380605653        0.4954649885        4.5890928161
 H       -10.1806092109        1.4249405757        4.8684466706
 H       -10.8755456247        1.3398662887        3.3080598682
 H       -14.9599779000        7.6324404197        1.0207330404
 H       -16.8177675719        7.4390640958        1.4980093323
 H       -16.3634337761        7.6713231738       -0.1612798184
 H       -18.1705909413        5.9089335958        0.5069569376
 H       -17.7369896950        4.2072032915        0.0468890910
 H       -17.7554975165        5.5777837364       -1.0767036150
 Na       -8.3107185007        1.8941167276       -2.0624161812
