117

 C       -15.5040273970        6.1267320510       -2.3042389412
 C       -15.0039925643        5.6719089120       -0.8998808188
 O       -13.8480802194        5.4031749418       -0.6538830353
 C       -15.9954703664        5.7847281671        0.2446171826
 C       -15.4892419028        4.7025134924        1.3964883180
 O       -16.0813305071        3.6683182773        1.5302700941
 C       -14.2047932613        4.9858922381        2.2476661902
 C       -13.9009568215        3.9589063818        3.3869627946
 C       -12.6272155616        3.1407842066        3.3701764003
 O       -11.8217980594        3.1125350332        2.4052785877
 C       -11.9842981727        2.5378421760        4.7148084093
 C       -11.2058462441        3.8331828134        5.1419694745
 O       -11.7100392407        4.5974807661        5.9638219905
 C        -9.8312476695        4.1211558555        4.5303177930
 C        -9.4999354228        5.5974979966        4.6589989568
 C        -8.2397933993        5.9620453407        3.8335533772
 O        -7.3715922991        5.1167525932        3.7061881490
 C        -8.0843312585        7.4191633594        3.1083004519
 C        -8.9933621193        7.1818354540        1.8811596100
 O       -10.0628211724        7.7878571991        1.7945598239
 C        -8.5859514079        6.1386266387        0.9132775105
 C        -9.8664352857        5.4561156657        0.3797699671
 C        -9.5601577186        4.5015266383       -0.7288163657
 O        -9.0628563624        3.4391592196       -0.4449181531
 C       -10.2087891515        4.6338886628       -2.2538877874
 C        -9.1296253671        4.2957975264       -3.3300773876
 O        -8.9946967963        3.1991141552       -3.8707494401
 C        -8.1775143485        5.4313432021       -3.6762179926
 C        -6.9834406512        4.9525382229       -4.4561382743
 C        -6.2698105895        3.8010242595       -3.6905119710
 O        -6.3462499838        3.7240412734       -2.4528422585
 C        -5.4195800994        2.7691057588       -4.5041571541
 C        -5.8097820932        1.3765702841       -3.9164817071
 O        -6.8870571108        0.9077015444       -4.0261776758
 C        -4.6898873814        0.6299816479       -3.2431747123
 C        -5.2470623044       -0.5606143685       -2.3714543832
 C        -6.3757098296       -0.2330348536       -1.3713720469
 O        -6.5585529368        0.8908096089       -0.9948955199
 C        -7.5254010892       -1.3219151681       -0.9871226537
 C        -8.6605480125       -1.1004919657       -2.1329304240
 O        -9.2335676968       -0.0648049568       -2.3559964756
 C        -9.0751764689       -2.3279559348       -2.8503137488
 C        -7.0172795798       -2.7778224944       -0.9603690838
 C        -8.1954386407       -0.9210723999        0.2865000724
 C        -5.7489608047        2.6995981688       -6.0554534169
 C        -3.9701942397        3.1804340857       -4.4847176970
 C       -11.3153759016        3.5864792562       -2.3349411017
 C       -10.7280300622        6.0077641253       -2.4673625158
 C        -8.7458084702        8.5324606911        4.0661641980
 C        -6.6245472152        7.6730526729        2.7909347050
 C       -13.0333551273        2.1516762265        5.7217261423
 C       -11.0662446310        1.3528975681        4.3637997217
 C       -15.8713485076        7.2327750422        0.8286067860
 C       -17.4011397280        5.3722793597       -0.1405225730
 H       -14.7013659411        6.1957274099       -2.9890773664
 H       -15.8296647195        7.2356197183       -2.1337717109
 H       -16.2695829012        5.4657536252       -2.7910841524
 H       -14.3014843412        6.0369715485        2.6390435949
 H       -13.3690946118        4.9306081989        1.5686282707
 H       -14.7117204840        3.1853736273        3.2980407995
 H       -14.0457513291        4.2987940027        4.3798251316
 H        -9.8959977459        3.7545012231        3.5513197185
 H        -9.1046830068        3.5765499448        5.1207181493
 H        -9.3431972424        5.7544693598        5.7385406027
 H       -10.3454390586        6.2551717012        4.4797062256
 H        -7.9358778907        5.3824158977        1.2664951429
 H        -7.9965643730        6.7336687195        0.0607259364
 H       -10.5714979664        6.1927071413        0.0947717001
 H       -10.2193396583        4.8579804687        1.2909165476
 H        -7.9189252579        6.0226435857       -2.8203697935
 H        -8.7359952452        6.2339785076       -4.2351793863
 H        -6.1471508605        5.6022307568       -4.6448929607
 H        -7.2563905108        4.6047904587       -5.4931053822
 H        -4.1546960214        1.3620751464       -2.5678525284
 H        -3.9884044343        0.1366373958       -3.9421326499
 H        -4.5565412372       -1.1183427236       -1.8007351862
 H        -5.6096558761       -1.3288375627       -3.0599148986
 H        -8.4972527187       -3.1593560351       -2.6717330712
 H        -9.2606347947       -2.1257171067       -3.9169996431
 H       -10.0685085448       -2.6172292384       -2.5271630282
 H        -6.5699807643       -3.2153143350       -1.7947399570
 H        -7.7180257815       -3.5335390407       -0.5605731374
 H        -6.2330350539       -2.7896669124       -0.2263419519
 H        -8.3817304123        0.1095864805        0.3314329554
 H        -7.5224687734       -1.1259491578        1.1530409039
 H        -9.0747958480       -1.4093510432        0.4162863516
 H        -5.5150097374        3.7177567426       -6.4230416132
 H        -6.7333913424        2.2287017076       -6.2209179245
 H        -4.9714249662        2.0999562966       -6.5983609661
 H        -3.3688710647        2.3917166979       -4.7346367029
 H        -3.4949529781        3.5582792060       -3.5323193427
 H        -3.7189876423        4.0118532460       -5.1546632779
 H       -11.7454869010        3.5703950210       -3.3723146882
 H       -12.1134029678        3.8306342272       -1.6179772222
 H       -10.8826390622        2.6310845750       -2.1063014061
 H       -11.2063861870        6.0026830815       -3.4474335620
 H        -9.9399137307        6.7992259392       -2.4160193761
 H       -11.4892191207        6.3239513496       -1.8525820880
 H        -8.1498475506        8.8017917853        4.8656969843
 H        -9.6915515134        8.2693862831        4.4656243666
 H        -8.9407612817        9.4301199994        3.4457075431
 H        -6.0673774743        6.7831956248        2.9546658513
 H        -6.1125589694        8.5294788120        3.2217141625
 H        -6.5210854240        7.8712045023        1.6961310087
 H       -12.6311303475        1.2742953648        6.2386075190
 H       -13.8490845925        1.7522780954        5.1991538952
 H       -13.2857820378        2.9953610519        6.3120102255
 H       -11.7258697706        0.5103188557        4.4321893998
 H       -10.1898137881        1.1515062006        4.9983678370
 H       -10.7698286659        1.3291358120        3.3316886115
 H       -14.8108971211        7.4163725138        0.9991002102
 H       -16.5552550701        7.2359713695        1.6982551173
 H       -16.2848787537        7.9290081612        0.0766993771
 H       -18.1093383894        5.7702801106        0.5963226648
 H       -17.4715026424        4.2918657531       -0.0939625553
 H       -17.8872541434        5.6740531855       -1.1062327773
 Na       -8.1884264459        2.0445178747       -2.1067064930
