117

 C        -4.6194532405       -5.5441252970        3.8127628375
 C        -5.9280192497       -5.4053802156        2.9971435098
 O        -5.8366744365       -4.8970646599        1.9043212060
 C        -7.3285888157       -5.5281265195        3.7498467200
 C        -7.6340181172       -4.2067568278        4.6532902686
 O        -7.8804936425       -4.3380960430        5.8793565397
 C        -7.7702368756       -2.9520109570        3.7678592546
 C        -7.9530684790       -1.6685151256        4.5806595529
 C        -8.7893962192       -0.4151652668        4.1084702339
 O        -9.4307269190       -0.4786743718        3.0898148408
 C        -9.0906812356        0.8024091246        5.1413470807
 C        -9.0956432833        2.1702815435        4.4185825316
 O        -8.2633365098        2.9720535506        4.7968454557
 C       -10.0142980640        2.4457076471        3.2128582620
 C        -9.1155410164        2.5629527636        1.9822891905
 C        -9.8870280976        3.0228677543        0.7424413386
 O        -9.5055212366        4.0906218758        0.2726408237
 C       -10.9265562893        2.1437092930       -0.0603581837
 C       -12.4374735981        2.7182908127        0.2504689792
 O       -12.6786368081        3.0784682695        1.3514612303
 C       -13.5372679056        2.6568337372       -0.8266140338
 C       -14.2385599629        4.0613635740       -0.9611739598
 C       -13.1546044899        5.0933216763       -1.2682614920
 O       -12.0015370589        4.7954666482       -1.0427862753
 C       -13.6599773930        6.4267803205       -1.8997929555
 C       -12.7542850606        6.4700203490       -3.2219518335
 O       -11.5603328294        6.3554370984       -3.1137835225
 C       -13.2535415860        6.7243483140       -4.6744257699
 C       -12.2141845975        7.3334037543       -5.5111493639
 C       -11.7130523037        8.6954918344       -4.9523773322
 O       -12.2256383852        9.2304823383       -3.9792111815
 C       -10.4556176403        9.4374596050       -5.5086563181
 C        -9.3673395040        9.4109992279       -4.2568806572
 O        -8.3570894082        8.7956605017       -4.3977323373
 C        -9.7582634191       10.2293993610       -2.9275223067
 C        -8.7478693973       10.0742189263       -1.7227342792
 C        -8.8315916240        8.6134212976       -1.2508718920
 O        -9.9180116691        8.1075799785       -1.0568499940
 C        -7.4492803863        7.7858638117       -1.0308614776
 C        -7.2625989546        6.9270547780       -2.3562367385
 O        -8.0548640863        6.0352366413       -2.6833172823
 C        -5.9805727569        7.0547692174       -3.0916512556
 C        -6.2583322675        8.8296281732       -1.0708008597
 C        -7.4925362035        6.9014051621        0.2004538603
 C        -9.7495902427        8.8269620044       -6.7098562007
 C       -10.8165803249       10.9436448149       -5.8866346523
 C       -15.1413891006        6.4419420253       -2.2460755546
 C       -13.3087492073        7.6498567193       -0.9423786396
 C       -10.4917831204        2.2385577135       -1.5341600978
 C       -10.8585166282        0.6843319592        0.4406647076
 C       -10.4988048996        0.4864822504        5.7196644247
 C        -8.1609484565        0.8184329199        6.3619527835
 C        -8.4805372985       -5.6395752203        2.6867938999
 C        -7.3501000560       -6.6811268298        4.7542171781
 H        -3.7864754332       -4.9615637518        3.4173050619
 H        -4.2452211458       -6.5330508360        4.0239602978
 H        -4.9059698843       -5.1102298959        4.7908576381
 H        -8.5019073193       -3.0808525933        3.0224569040
 H        -6.8712657484       -2.9173802642        3.1410734228
 H        -6.9816860890       -1.3767641593        4.7518374716
 H        -8.4828233576       -2.0227169077        5.5279842602
 H       -10.5990922627        3.3275520262        3.3876226471
 H       -10.7691150289        1.6354021362        3.0982502936
 H        -8.6970370458        1.5599669609        1.8661337521
 H        -8.3078895088        3.3172269650        2.2035640751
 H       -14.2881638981        1.9698789723       -0.3679801936
 H       -13.1465296295        2.3499356808       -1.8382348331
 H       -14.5936156100        4.2791447957        0.0646282912
 H       -15.0086920385        3.9529385842       -1.7183186659
 H       -14.0750082256        7.3031489173       -4.5698983219
 H       -13.5588691130        5.8448588795       -5.1700408446
 H       -12.5858939166        7.5437543164       -6.5043658507
 H       -11.4144328603        6.5361272717       -5.5748443724
 H       -10.7208738478        9.9061281175       -2.7217297596
 H        -9.8229757943       11.2974579906       -3.3238319775
 H        -9.1793797155       10.5705876441       -0.9023295598
 H        -7.7766395736       10.4619079686       -2.0663847519
 H        -6.0440194777        7.9320964451       -3.7027453731
 H        -5.8529561891        6.2190846977       -3.8032226422
 H        -5.2564461851        7.0403067409       -2.2889501967
 H        -6.5055391057        9.6308333847       -0.3449871608
 H        -6.0847063206        9.2987442095       -2.0172828306
 H        -5.3702697357        8.3503981974       -0.6040692019
 H        -7.8424687634        7.5397466435        1.0546969312
 H        -6.4482413711        6.4250044333        0.4024340365
 H        -8.1169163538        6.0356569299        0.0929149376
 H        -8.7634619025        9.2605695285       -6.8260642527
 H       -10.3129096030        9.0547810590       -7.6021224676
 H        -9.6013414892        7.7213572979       -6.5264144212
 H       -10.0404701830       11.5897029841       -6.2901720507
 H       -11.2651316426       11.5250080196       -5.0933659454
 H       -11.6100572627       10.9069730537       -6.6683229327
 H       -15.8107351657        6.3592236905       -1.4191995890
 H       -15.2496869985        5.6657201100       -2.9807935759
 H       -15.3443891478        7.3760293766       -2.7124852394
 H       -13.6666735420        7.6430525498        0.0302601852
 H       -13.6504516724        8.5363267858       -1.4181275624
 H       -12.2829632786        7.6924152130       -0.9373421677
 H       -11.2722926491        1.6564921448       -2.1242468627
 H        -9.6028126906        1.7022863370       -1.6601616520
 H       -10.4176324383        3.2484003555       -1.8408529379
 H       -11.1162225941        0.5519941227        1.5094915905
 H        -9.8085024795        0.2418359781        0.3877449716
 H       -11.5907127401        0.0497566862       -0.0054061982
 H       -10.5523104358       -0.5503158021        6.0164103241
 H       -11.3061241392        0.6772784672        4.9524022911
 H       -10.6488819377        1.1054843321        6.5887420493
 H        -8.2312900698       -0.0788188763        6.9599796982
 H        -8.4068193117        1.7454257228        6.9657274055
 H        -7.1627097772        1.0140280492        6.0462723617
 H        -8.3870009101       -4.9604575946        1.8521888995
 H        -9.4232123905       -5.4690331424        3.1546389123
 H        -8.4469989140       -6.5074487954        2.0766076415
 H        -6.5366489865       -6.4440574020        5.4486051809
 H        -7.1334211871       -7.6262113032        4.2814374575
 H        -8.3040481285       -6.8288436812        5.2156223054
 Na      -10.0913915394        5.8766281398       -1.3734939346
