117

 C       -16.0150648187        5.4895230737       -2.2875701650
 C       -15.5664013571        5.9291887229       -0.8371635926
 O       -14.4264669565        6.3861780649       -0.7569234836
 C       -16.4591196473        5.8688870014        0.4373158664
 C       -15.8458842223        4.7536764584        1.4200615110
 O       -16.5680373857        3.8865265663        1.7919469277
 C       -14.3633897704        4.8967490736        1.7545233668
 C       -13.9794645487        3.9842375076        2.9729021586
 C       -12.5350954598        3.6390138365        3.1483234634
 O       -11.7126804575        3.5747696773        2.2097252164
 C       -11.9509447144        3.2873428329        4.5621698298
 C       -11.1561206381        4.5543606021        4.9857126015
 O       -11.6966658921        5.3993289726        5.7039556878
 C        -9.7731895163        4.6698428138        4.3017020630
 C        -9.2230673734        6.0401634272        4.4175836904
 C        -7.7574524057        6.0797955592        3.8176140888
 O        -6.9716934015        5.1686040527        4.0223807496
 C        -7.4450591992        7.2373757380        2.7907720087
 C        -8.5736172518        6.9707502409        1.7751836498
 O        -9.5973944244        7.6345946959        1.9324090380
 C        -8.4963460257        5.9535334184        0.6795672006
 C        -9.9271506994        5.4648519901        0.2434465554
 C        -9.8650130231        4.5652035856       -0.9508111192
 O        -9.2419333672        3.4718804942       -0.8407933442
 C       -10.5005719539        4.7766586634       -2.3779424060
 C        -9.4602834972        4.1835447009       -3.4624389677
 O        -9.5471733374        3.0655825497       -3.9325210202
 C        -8.3028942920        5.1231882908       -3.7150860723
 C        -7.0634185135        4.4297724149       -4.3912272250
 C        -6.1789394054        3.5498887510       -3.4527083149
 O        -6.3609147213        3.4851128656       -2.2760611375
 C        -5.1240932174        2.5771400608       -4.1884320516
 C        -5.6559424180        1.0951984361       -3.8238308182
 O        -6.7919813595        0.8050678797       -4.1839432290
 C        -4.7595280172        0.0307186937       -3.1454245622
 C        -5.4786047161       -1.1390428163       -2.4146442738
 C        -6.3766387224       -0.6123296255       -1.3296981929
 O        -6.2660040719        0.5010804388       -0.9274587134
 C        -7.4177441051       -1.6280935761       -0.6942094981
 C        -8.5843940422       -1.5354108575       -1.7503028843
 O        -8.9545843377       -0.4149965703       -2.0790133584
 C        -9.1747277258       -2.7608684961       -2.3335424696
 C        -6.6788185691       -2.9643166187       -0.4610259481
 C        -7.9608982970       -1.1376576405        0.6674874031
 C        -5.1841364287        2.5809176174       -5.7380611591
 C        -3.7135837500        2.8224890934       -3.5534456631
 C       -11.9326448576        4.0544251156       -2.4818754710
 C       -10.7495620534        6.3044942032       -2.6344871425
 C        -7.6962102349        8.5974617465        3.5206767331
 C        -5.9747790383        7.1214057844        2.2780796322
 C       -13.1768589535        3.1170453046        5.5042455781
 C       -11.0298544135        1.9941586252        4.4797692108
 C       -16.4238749640        7.2696766271        1.1108045595
 C       -17.9335558382        5.5193059898       -0.0566376908
 H       -15.0562403963        5.4732516799       -2.7276220487
 H       -16.6997576497        6.3006927715       -2.7911428911
 H       -16.5781205647        4.5577434824       -2.2889325487
 H       -14.0707158572        5.8807287785        1.8814393430
 H       -13.7782609055        4.6631033187        0.8287590892
 H       -14.5395485585        3.0648846934        2.9381315308
 H       -14.3650185547        4.5602881422        3.8523049428
 H        -9.9115993094        4.3540981748        3.2854483037
 H        -9.1664885582        3.9147914022        4.6656472593
 H        -9.1204365726        6.2617223868        5.5016563223
 H        -9.8999231942        6.7219567637        3.9226204087
 H        -7.8706808793        5.0388027331        0.9968356924
 H        -8.0246927956        6.4141234226       -0.2194347083
 H       -10.5123120767        6.4225009525        0.1807815214
 H       -10.2713173787        4.8128146241        1.0546160622
 H        -7.9484118164        5.4525632645       -2.7238451103
 H        -8.6085276088        5.8849459039       -4.4337977552
 H        -6.3935342749        5.1300444787       -4.7785150376
 H        -7.4671400413        3.7477624944       -5.2287833505
 H        -4.1152700979        0.4842380215       -2.4439349195
 H        -3.9145720799       -0.4271970172       -3.7925423253
 H        -4.7319107774       -1.8518075284       -1.9919112032
 H        -6.2385389863       -1.6261213924       -2.9732059674
 H        -9.9067001083       -3.1277829928       -1.7126547030
 H        -8.4444226827       -3.5811215173       -2.3373569832
 H        -9.6284042017       -2.5202778374       -3.3171562589
 H        -6.2176604222       -3.3718924156       -1.3137632935
 H        -7.2981301419       -3.7353788175       -0.0740933534
 H        -5.9127579044       -2.8229879337        0.3072495561
 H        -8.3096995188       -0.1481479723        0.5843001734
 H        -7.2027241772       -1.1948844353        1.4634225548
 H        -8.6656080324       -1.7416091158        1.0586758858
 H        -5.0311436566        3.5135941998       -6.3282584342
 H        -6.2250653382        2.3146102309       -6.0094706611
 H        -4.4697426640        1.7910450379       -6.0717951602
 H        -3.1228280641        1.9624727389       -3.7138360075
 H        -3.7495126393        2.9802606892       -2.4501014760
 H        -3.1888117875        3.7069297936       -3.9694409629
 H       -12.4425256282        4.3207723725       -3.4074271128
 H       -12.5173179042        4.4213770696       -1.6153553665
 H       -11.8800435740        2.9451557829       -2.3842657308
 H       -11.1766684459        6.4998137004       -3.6209413264
 H        -9.8752590625        6.9403975402       -2.5638176915
 H       -11.4482751113        6.5568842236       -1.8579717261
 H        -7.0306264205        8.5989454975        4.3484324506
 H        -8.6813629874        8.6279641927        3.8886039868
 H        -7.6005677515        9.5348307109        2.9256817418
 H        -5.4979162418        8.0334429519        2.1159370174
 H        -6.0125173408        6.5402374501        1.4065336924
 H        -5.4096190660        6.5725096135        3.0716696497
 H       -12.7641649223        3.1025854456        6.5054328497
 H       -13.7356223275        2.2314211948        5.2910891251
 H       -13.7880825858        4.0371554886        5.6121213901
 H       -11.7302745914        1.1661547563        4.2911220097
 H       -10.6535226510        1.7165202041        5.4758854208
 H       -10.3054461694        2.0005304869        3.6249598506
 H       -15.4300429546        7.5879094410        1.2541269994
 H       -17.0792372650        7.3649258212        2.0453928387
 H       -16.8692543116        7.9329858056        0.3293780137
 H       -18.6768204853        5.5203024222        0.7851455477
 H       -17.9715570873        4.5567409910       -0.4327176111
 H       -18.2605400602        6.2717113109       -0.8151953224
 Na       -8.3364185618        1.7877852122       -2.2825326950
