117

 C       -16.0932182437        5.4028091764       -2.2116752183
 C       -15.5206708920        5.9561622466       -0.9010602989
 O       -14.4298452582        6.4407525319       -0.7770489520
 C       -16.4871459666        5.9528027182        0.3260176569
 C       -15.9681990997        4.8005711066        1.3178873328
 O       -16.7149293701        3.9682564456        1.7595435974
 C       -14.4362476377        4.8672056890        1.6682398685
 C       -13.9901000121        4.0104556795        2.8860633992
 C       -12.5282251354        3.7023722043        3.0852711427
 O       -11.6824115106        3.6245871145        2.1759377935
 C       -12.0308260018        3.3424833167        4.5603744212
 C       -11.1691475899        4.5951276273        4.9509811221
 O       -11.5582660441        5.4162581729        5.7029616834
 C        -9.7489228515        4.7262930337        4.3194508347
 C        -9.1181118041        6.0788282366        4.4744282548
 C        -7.7623674791        6.0375242655        3.8036809716
 O        -6.9120463087        5.2226159668        4.0836704033
 C        -7.4274316475        7.1561485401        2.7712612529
 C        -8.5310442713        7.0418848854        1.7106131597
 O        -9.5661321776        7.6394518737        1.8597586273
 C        -8.4879636236        5.7963387192        0.6852121974
 C        -9.9061204380        5.3580047398        0.2043143607
 C        -9.8402910033        4.4097271343       -1.0028077186
 O        -9.1928982453        3.3712524382       -0.9022243134
 C       -10.4951617789        4.8480455383       -2.3728038411
 C        -9.4573216594        4.2306428710       -3.4576648600
 O        -9.6334601554        3.1237324098       -3.8607424227
 C        -8.2308369254        5.0746309877       -3.8333644931
 C        -7.0633084045        4.3181334135       -4.5109770371
 C        -6.2591021628        3.4132909378       -3.5184673998
 O        -6.3915479643        3.5694936868       -2.2763358199
 C        -5.2085887459        2.4091049612       -4.0646924207
 C        -5.7354577626        1.0270067979       -3.7560759499
 O        -6.8688285934        0.7381916117       -4.0750218772
 C        -4.7626470692        0.0849435477       -3.1655830361
 C        -5.3860721595       -1.1536608412       -2.4674445497
 C        -6.3464778116       -0.6265727197       -1.2603419711
 O        -6.3044356025        0.4867885633       -0.7941506884
 C        -7.3715874607       -1.6210424735       -0.6893339172
 C        -8.6495296147       -1.5586384657       -1.7239207484
 O        -9.1680146349       -0.4306798272       -1.9884601059
 C        -9.2615473281       -2.7723231362       -2.3519908133
 C        -6.7071300082       -2.9953815243       -0.4379718584
 C        -7.7999369854       -1.0807099299        0.6850835204
 C        -5.0057217165        2.6331912525       -5.6088131980
 C        -3.8099213284        2.9071431983       -3.5393266190
 C       -11.8064172015        4.0694959111       -2.5056388921
 C       -10.7420799600        6.3381615813       -2.5311392434
 C        -7.5959340321        8.5245634136        3.4713512137
 C        -5.9668118870        7.1073109154        2.1361809616
 C       -13.1743374240        3.1592633326        5.5656299505
 C       -11.0972139160        2.1334107849        4.5556028779
 C       -16.4393182419        7.2829667730        1.0795824943
 C       -17.9481918653        5.4951673222        0.0574827443
 H       -15.3354117254        5.5861212999       -2.9519744559
 H       -17.0690002400        5.8636296047       -2.4115176514
 H       -16.3096274924        4.3123622876       -1.9935708932
 H       -14.1246433742        5.8889617206        1.7554538768
 H       -13.8859840415        4.5756769824        0.7836596703
 H       -14.4710673278        3.0376907409        2.7774931630
 H       -14.4332097066        4.4648056807        3.7648726662
 H        -9.8302703239        4.3849724474        3.2909138229
 H        -9.1065301463        3.9752737167        4.7377471094
 H        -9.0442980163        6.2359747877        5.5971860295
 H        -9.6878800611        6.8230406325        3.9672836715
 H        -8.0391985972        4.9996605934        1.1341514179
 H        -7.9193880378        6.0197022098       -0.2509504191
 H       -10.3700517859        6.3016688257        0.0263492380
 H       -10.3952691724        4.8609064049        1.1162167150
 H        -7.7815228470        5.6313829853       -3.0409387583
 H        -8.6538980543        5.6429567318       -4.6786974636
 H        -6.3542818492        5.0163250122       -4.9119245077
 H        -7.5094993746        3.6067632454       -5.2805165251
 H        -4.0805463373        0.5638262546       -2.4668960683
 H        -3.9886325315       -0.2595728364       -3.8703947828
 H        -4.5432101281       -1.7594764554       -2.0433944804
 H        -6.1238369731       -1.7003687812       -3.0994200336
 H        -9.7517079189       -3.3844994282       -1.5760293925
 H        -8.4578574402       -3.4622212089       -2.7051553910
 H        -9.9767439806       -2.5013768956       -3.0627497549
 H        -6.4788540285       -3.4012388153       -1.3809197991
 H        -7.3613310572       -3.7511242653        0.0381792153
 H        -5.8101508709       -2.9236686329        0.1450366126
 H        -8.2749457437       -0.1419367313        0.5763310052
 H        -7.0036517584       -1.0228882649        1.3830187094
 H        -8.4559184223       -1.8192091886        1.2663650124
 H        -4.9564328535        3.7249654093       -5.9171491860
 H        -5.8743554486        2.2737384271       -6.2244758395
 H        -4.0400540959        2.1374270746       -5.8866734967
 H        -3.1246168115        2.0986028748       -3.3934209248
 H        -3.8219547700        3.5405558281       -2.5909261407
 H        -3.4180278747        3.6204730839       -4.2895745863
 H       -12.2636219481        4.1905329784       -3.5319367667
 H       -12.5128601726        4.3332167620       -1.6954437524
 H       -11.5565885569        3.0335843894       -2.3732267513
 H       -11.0661323872        6.5866577161       -3.5558094785
 H        -9.7584215369        6.8757029101       -2.3719523124
 H       -11.4404106552        6.6528648875       -1.8266156622
 H        -7.0191549606        8.5193165049        4.3220250866
 H        -8.6209136829        8.6889630682        3.7513725284
 H        -7.3950548394        9.3437659941        2.8233309748
 H        -5.7452043331        8.0775118465        1.6717378111
 H        -6.0466310499        6.3710083632        1.3338993138
 H        -5.2102562947        6.8473577002        2.8726301761
 H       -12.7932240665        2.7548446756        6.5395845917
 H       -13.9088321287        2.4677955198        5.1692665384
 H       -13.6219519694        4.0785519894        5.8333099860
 H       -11.5208017507        1.2469395424        4.1083701736
 H       -10.9771477542        1.8906708246        5.6278174295
 H       -10.1841749601        2.3415193539        4.0187116447
 H       -15.3261201609        7.6019970835        1.0016971974
 H       -16.7494727849        7.0994587932        2.1091869607
 H       -17.0740655047        8.0714934938        0.6564163932
 H       -18.3642899398        5.0833509668        0.9423151407
 H       -17.9290436437        4.5898023823       -0.6503475980
 H       -18.6257712784        6.3017909493       -0.3011501588
 Na       -8.2718423696        1.7956588868       -2.2391283861
