117

 C       -16.0950150851        5.3247410387       -2.1986405765
 C       -15.6201399025        6.0194731307       -0.9620626884
 O       -14.4832072039        6.4410111291       -0.8647516927
 C       -16.5038896485        5.9104961562        0.3591563895
 C       -15.9232246026        4.8435183389        1.2630686884
 O       -16.6899899743        4.0030196788        1.8060821691
 C       -14.3798816922        4.7832802776        1.5728839059
 C       -14.1093584214        3.9757709447        2.8260420191
 C       -12.5464513629        3.6677658392        3.0244334868
 O       -11.7808456972        3.7280868824        2.1042347182
 C       -12.0689670472        3.4013136869        4.5531576464
 C       -11.1295080809        4.6917869199        4.9655507021
 O       -11.4759119568        5.5304220266        5.7726194494
 C        -9.7118432342        4.7383188534        4.3597928161
 C        -8.9776889205        6.1102525668        4.5427403803
 C        -7.5957099080        6.0769715606        3.8439698442
 O        -6.8312279940        5.2054141336        4.1352875406
 C        -7.4461560746        7.1649230644        2.6700186924
 C        -8.6380444062        6.9398413967        1.6936144488
 O        -9.6064580891        7.6541465570        1.5898387202
 C        -8.4908665824        5.7302843609        0.7390760499
 C        -9.8488109452        5.3154197585        0.1635691724
 C        -9.6756549926        4.3759649409       -1.0269162753
 O        -9.2084883872        3.2974206297       -0.8511700303
 C       -10.3795425578        4.8447803110       -2.3561745365
 C        -9.4553327041        4.3107241389       -3.4754219717
 O        -9.6242887940        3.1258242834       -3.7884657333
 C        -8.2413972272        5.1409951550       -3.9784176761
 C        -7.2216494519        4.2025290633       -4.5992884987
 C        -6.3408319744        3.4688660835       -3.5768138618
 O        -6.4839767125        3.5951609423       -2.3585041085
 C        -5.1996426425        2.5641402580       -4.1078089659
 C        -5.7198914131        1.0065326555       -3.7437412003
 O        -6.8824918188        0.6780409178       -3.8617267847
 C        -4.6808360583        0.0528157367       -3.0825067895
 C        -5.4402446063       -1.1021732472       -2.3821057612
 C        -6.3400443248       -0.6146726910       -1.2457090890
 O        -6.2441534818        0.5534484919       -0.8889759373
 C        -7.3992005692       -1.6150355104       -0.7446757115
 C        -8.6684335811       -1.5547982059       -1.5971320096
 O        -9.2189254029       -0.4915672163       -1.8238479960
 C        -9.2516625507       -2.8424418649       -2.2550013307
 C        -6.8995585083       -3.0840875912       -0.5847911330
 C        -7.7819415300       -1.0217013818        0.6916978445
 C        -4.9413276586        2.5945310834       -5.6406914795
 C        -3.8934963718        2.9473163376       -3.3453531427
 C       -11.7169461966        4.0455658108       -2.5085834412
 C       -10.6603264470        6.3526606711       -2.4655942733
 C        -7.4374932887        8.5603615719        3.4134539037
 C        -6.0334576448        7.0042968478        2.0317248548
 C       -13.1792771077        3.2098124483        5.6279355892
 C       -11.2190036213        2.1271009361        4.5526402566
 C       -16.4619418280        7.2971890775        1.0941523380
 C       -18.0219681187        5.5847293601        0.0794086490
 H       -15.4962256734        5.6436597723       -3.1011654277
 H       -17.0921857492        5.4784437843       -2.2763666772
 H       -15.9600374198        4.2722656027       -1.9126691149
 H       -13.9622802099        5.8513487622        1.6768108175
 H       -13.8321738901        4.4055095078        0.7452252892
 H       -14.7522656981        3.0738573041        2.7298003535
 H       -14.5492730125        4.5266867343        3.6172547263
 H        -9.8835149251        4.3713751335        3.3255518410
 H        -9.0757413331        3.8857794112        4.7953574253
 H        -8.9426890119        6.1818056663        5.6169378733
 H        -9.5393602110        6.9327832154        4.0537458456
 H        -8.0647415305        4.8756994123        1.2038960479
 H        -7.8303265291        5.9934085453       -0.0500610572
 H       -10.3491480827        6.2594200792       -0.0319197509
 H       -10.3555440460        4.8615360160        1.0395647511
 H        -7.6534279458        5.5278016042       -3.1661177678
 H        -8.5469653470        5.8447710422       -4.7393233947
 H        -6.4256634897        4.8324433659       -5.1515441826
 H        -7.6308281634        3.4590024198       -5.1884590290
 H        -3.8589847435        0.5054631340       -2.4606248938
 H        -4.0934788145       -0.4663225035       -3.7527670430
 H        -4.6681422060       -1.6736065904       -1.8654271124
 H        -6.0704976406       -1.6906061811       -3.1439413125
 H        -9.4421129567       -3.7401887439       -1.5671252279
 H        -8.5489059665       -3.2423661427       -2.9427518044
 H       -10.2075107135       -2.5632951235       -2.6997750540
 H        -6.8467048416       -3.5635806760       -1.6052776444
 H        -7.5943855860       -3.7246189859       -0.0177978662
 H        -5.9185098835       -3.1297556457       -0.1216482520
 H        -8.3846925512       -0.0771044496        0.5114653893
 H        -6.9340639817       -0.8206099957        1.3255805743
 H        -8.3428122791       -1.7355845063        1.3754180365
 H        -4.8687024757        3.6058176411       -6.0861247617
 H        -5.8093579608        2.1462993637       -6.1826425730
 H        -3.9876709937        2.0596255447       -5.8717614217
 H        -3.1793327558        2.0240622636       -3.2906528737
 H        -4.1391297839        3.2421793732       -2.3406119059
 H        -3.4146145161        3.8308229632       -3.7549872242
 H       -12.0527455629        4.1803262912       -3.5407970118
 H       -12.4490555607        4.3724485572       -1.7851164718
 H       -11.5431472160        2.9841346906       -2.3486369115
 H       -10.8732641810        6.6174449844       -3.4999101482
 H        -9.7507484677        6.8847103990       -2.1685712790
 H       -11.5235021132        6.6657604052       -1.8197858625
 H        -6.8226725474        8.4780465967        4.3347483486
 H        -8.4532852776        8.8001846675        3.7136546120
 H        -7.1966828827        9.3340552008        2.7841865765
 H        -5.8534386987        7.8111205931        1.2262140869
 H        -5.9635422509        5.9913844705        1.5453396566
 H        -5.3559033893        7.0944388829        2.8540337852
 H       -12.8962353340        2.5128338905        6.4174325984
 H       -14.0687202760        2.7639215419        5.1062355871
 H       -13.4962019372        4.1388500237        6.0738307908
 H       -11.7109507142        1.2364293732        4.1599435483
 H       -10.9850746259        1.9495751007        5.5808083200
 H       -10.3673925780        2.2887342699        3.9521405383
 H       -15.4180866762        7.6704480767        0.8854197155
 H       -16.6181149923        7.1286592473        2.1441407201
 H       -17.2126632709        8.0354457940        0.7902207141
 H       -18.5530914347        5.2204613784        0.9525137299
 H       -18.1771196658        4.7816732657       -0.7119328170
 H       -18.4812799426        6.5167894507       -0.2130557847
 Na       -8.1857245470        1.7170353817       -2.1855929652
