117

 C       -16.3965128406        4.9354645880       -2.1262432146
 C       -15.7913808535        5.8731698956       -0.9872566657
 O       -14.7152350767        6.4440730315       -1.2100132731
 C       -16.5662338356        6.0369610688        0.3266355156
 C       -15.9823499685        4.7243032365        1.2352167923
 O       -16.7497176061        3.9923610186        1.7074309490
 C       -14.4711140138        4.5713901036        1.5885045980
 C       -14.1303586783        4.6019563805        3.0743290365
 C       -12.6887931279        4.0170857537        3.2178024741
 O       -11.9937113098        3.9754755226        2.1932807016
 C       -12.1001581652        3.6741845816        4.6531446221
 C       -11.0914130492        4.8134193721        4.9087283831
 O       -11.3078535620        5.7115438515        5.6557777239
 C        -9.7145256159        4.7651488357        4.1472426006
 C        -8.9505179333        6.1233106464        4.4261644076
 C        -7.5420548497        6.0816479083        3.8190706174
 O        -6.6671310930        5.3451204286        4.1872975427
 C        -7.2027778676        7.1011822462        2.6489255987
 C        -8.3582589368        6.8456256770        1.6491185708
 O        -9.1970700321        7.6764169534        1.3502046875
 C        -8.4584706753        5.5421312687        0.9048169282
 C        -9.7847238749        5.4186220566        0.1665390759
 C        -9.7080352536        4.3252935978       -0.9062858046
 O        -9.3529227534        3.2006202187       -0.5718364571
 C       -10.1144436827        4.6210318943       -2.4879014553
 C        -9.3175628244        3.9126881940       -3.5675815393
 O        -9.3095571964        2.6628836146       -3.6703044432
 C        -8.5733572383        4.6238302256       -4.6958504861
 C        -7.0922474528        4.1163814918       -4.9305017493
 C        -6.5169656429        3.3677883746       -3.7161346651
 O        -6.9058841517        3.5427653053       -2.5993923670
 C        -5.2184844175        2.5343229602       -3.9954780028
 C        -5.6571459908        1.0957787894       -3.5931417044
 O        -6.8176884993        0.7830275694       -3.8824463286
 C        -4.6665942416        0.1096238364       -3.0195176580
 C        -5.2903737921       -1.1025655505       -2.2916547779
 C        -6.3894987048       -0.6509134497       -1.2925124352
 O        -6.5030428746        0.5521690747       -1.0023209791
 C        -7.4016620722       -1.6484509915       -0.6013499820
 C        -8.8511244850       -1.4627163638       -1.4391037249
 O        -9.3270356462       -0.3763358538       -1.6962000231
 C        -9.4714645239       -2.7850059913       -1.7402044259
 C        -6.9730387339       -3.1462877235       -0.7906930349
 C        -7.7173432741       -1.1774844800        0.8019320253
 C        -4.7630410351        2.5122115847       -5.4542563266
 C        -4.1249883894        3.0785091525       -2.9145189102
 C       -11.5343032547        4.1028348926       -2.6696527455
 C       -10.0101526749        6.1465715893       -2.7003475771
 C        -7.3335823754        8.5138241476        3.2709154347
 C        -5.8580141994        6.7631182007        1.9618684020
 C       -13.1740767259        3.6750798415        5.7400764195
 C       -11.3651659956        2.3262890998        4.5586156235
 C       -16.1780638560        7.3646378005        1.0358663418
 C       -18.1110432866        5.9840795418        0.1242313532
 H       -15.5436126546        4.6265246929       -2.6249876725
 H       -16.9183409880        5.7472506536       -2.7714387140
 H       -16.9028491138        4.0582111613       -1.8371751215
 H       -13.8600214653        5.2991521438        1.0713340162
 H       -14.2125348657        3.5511094080        1.2474027814
 H       -14.8863479275        4.1547993038        3.7086663879
 H       -14.1645317288        5.6591701401        3.3206243196
 H        -9.8870528890        4.6791653747        3.0371158676
 H        -9.0758851187        3.9090143078        4.5463626355
 H        -8.7614661709        6.3237000586        5.4744241737
 H        -9.4997192076        7.0110583794        4.0385773560
 H        -8.2877172847        4.6395511942        1.5644291760
 H        -7.7360904582        5.3674299739        0.2102402889
 H       -10.0066620714        6.4481767138       -0.2120915268
 H       -10.6415162894        5.3097340708        0.7597052596
 H        -8.5785509670        5.7100448839       -4.6016295053
 H        -9.0290437587        4.3856630779       -5.6535721542
 H        -6.4283619171        4.9715564244       -5.1198076597
 H        -7.1187370325        3.4554942547       -5.7991110598
 H        -4.0430659564        0.5623379322       -2.2839849302
 H        -4.0556287118       -0.1076012455       -3.9287420134
 H        -4.5240298392       -1.6953164675       -1.6999784300
 H        -5.9068526106       -1.6799371929       -3.0354903044
 H        -9.6261937055       -3.2806026246       -0.8224566209
 H        -8.8661951400       -3.3959720087       -2.4567970982
 H       -10.5203422516       -2.6861625878       -2.1146818439
 H        -6.9328325790       -3.4619231853       -1.8264354405
 H        -7.6523157264       -3.7297092638       -0.2098667594
 H        -5.9337295751       -3.2408133958       -0.4333748391
 H        -8.0474934910       -0.1056070359        0.7713758685
 H        -6.7962991373       -1.1796303023        1.5300180156
 H        -8.5721520683       -1.7232692387        1.1623267306
 H        -4.6429086795        3.5280205404       -5.8734989014
 H        -5.4191760925        1.8580027483       -6.0618860956
 H        -3.7891901968        2.0260844680       -5.6520916619
 H        -3.5392562445        2.2588004545       -2.6292780669
 H        -4.7258563886        3.4719215039       -2.0389058597
 H        -3.4105735726        3.8853132379       -3.2804349163
 H       -11.9624054127        4.3894486526       -3.6202893955
 H       -12.1975537833        4.4903186876       -1.8687008480
 H       -11.5215801417        2.9832248246       -2.6101112020
 H       -10.1729143463        6.3985874193       -3.7483888724
 H        -9.0898724414        6.4622677732       -2.2500646481
 H       -10.8100488974        6.6460454857       -2.1438692383
 H        -6.5080322088        8.6900362323        3.9003830269
 H        -8.2074717844        8.5784039182        3.8374218026
 H        -7.2473944029        9.2844075352        2.4730308601
 H        -5.6041674021        7.5899424047        1.3183174549
 H        -5.9440015750        5.8141906379        1.4362503991
 H        -5.1539880623        6.5126576294        2.8267241855
 H       -12.7427954304        3.5285800376        6.7003527576
 H       -13.8563584718        2.8570783221        5.6741723714
 H       -13.8799049804        4.5306439875        5.6767094293
 H       -11.9775779522        1.6590363233        3.9702594230
 H       -11.1718770454        1.9869039298        5.5465465811
 H       -10.3586557429        2.4474043908        4.1382860028
 H       -15.1597441149        7.4783038437        1.3065228307
 H       -16.8479627202        7.4826856685        1.9620738908
 H       -16.4459248252        8.2301295099        0.3844753630
 H       -18.6333059697        5.8499422490        1.1238662934
 H       -18.3539824743        5.2478706841       -0.5818898678
 H       -18.4400375037        6.9864165280       -0.2387112535
 Na       -8.3880214371        1.6137307042       -1.8895310142
