117

 C       -17.2500551030        4.6023473816       -1.7864594179
 C       -16.0851984929        5.3560390098       -1.1950722548
 O       -14.9573158242        5.3668900461       -1.7015104716
 C       -16.3594231962        6.1537129913        0.2128176067
 C       -16.0074153233        5.2003655462        1.3895195806
 O       -16.8946107345        4.7006843601        2.0957094386
 C       -14.4614844866        5.0259385992        1.6964890654
 C       -14.2703862637        4.6373611823        3.2525515098
 C       -12.8111733614        4.2901434863        3.6022438979
 O       -11.9970359849        4.0249675750        2.6843825351
 C       -12.2929785737        4.3266138970        5.0331147254
 C       -11.1812911062        5.5298998295        5.1445762303
 O       -11.5359298790        6.6270238554        5.5182240233
 C        -9.7781616544        5.1421190019        4.6448885522
 C        -8.9853948812        6.3115248266        4.0852725163
 C        -7.8055776608        5.8418916026        3.2992353274
 O        -7.5410305668        4.6559561379        3.1833592517
 C        -6.9238882205        6.8770205300        2.5334505494
 C        -7.7760527414        7.0489287015        1.1860877703
 O        -8.5029883970        8.0013394060        1.1117757843
 C        -7.8013739777        5.7957437319        0.2472164869
 C        -9.0544652923        5.9543593694       -0.7310080752
 C        -9.1702708991        4.6566121568       -1.4750990637
 O        -8.5518262349        3.6733260925       -1.3270041916
 C       -10.1804356065        4.5939901788       -2.7286507727
 C        -9.5938545685        3.5699631871       -3.8401669491
 O        -9.9694106958        2.4004211308       -3.8037121604
 C        -8.6211946444        3.9990680478       -4.9906198878
 C        -7.4049332801        3.1034681078       -4.9825667196
 C        -6.4468116307        3.3575438268       -3.8234035122
 O        -6.5727978158        4.3550165962       -3.1700208394
 C        -5.1762831777        2.3967510720       -3.5744291653
 C        -5.6465773014        1.0041014286       -3.1730010987
 O        -6.7821202421        0.7176122510       -3.4782408747
 C        -4.6354515066       -0.0087950507       -2.5774276111
 C        -5.3881398619       -1.2240879934       -1.9427201031
 C        -6.5104137710       -0.8655780294       -1.0284589766
 O        -6.7203816994        0.3164556587       -0.7623023878
 C        -7.4474307154       -2.0093835554       -0.5033950510
 C        -8.9530010613       -1.8540458385       -1.0384053895
 O        -9.3667008368       -0.8231794657       -1.4646110648
 C        -9.9221411755       -3.0253169945       -0.8650623386
 C        -6.8423258291       -3.4062533278       -0.7544141046
 C        -7.5046335753       -1.7205403988        1.0614737213
 C        -4.3717699669        2.2565552629       -4.9578897229
 C        -4.3117554732        3.0340370407       -2.3974000004
 C       -11.5026228630        3.9854500580       -2.2765817578
 C       -10.3631803674        5.9693837761       -3.3885794018
 C        -6.7879750683        8.2868304124        3.1909850398
 C        -5.5658639284        6.1903579297        2.1274236520
 C       -13.4663257023        4.6806576802        5.9706999687
 C       -11.6105797189        2.9654442825        5.3322196946
 C       -15.4336879996        7.4680233693        0.2065799090
 C       -17.8020790271        6.6963700301        0.2655616170
 H       -17.1326050283        4.6239722695       -2.8607863593
 H       -18.1522135585        5.0746015772       -1.5344728554
 H       -17.3011319217        3.6527653517       -1.2430620047
 H       -13.8411350630        5.9216547585        1.4226568722
 H       -14.1728446786        4.2528097439        0.9588278868
 H       -14.9503587302        3.7547370460        3.4439358284
 H       -14.6147270429        5.4656375698        3.8459271990
 H        -9.8080527261        4.2732195120        3.9736637876
 H        -9.2973348262        4.7597799197        5.6090245613
 H        -8.6265405829        6.9261140467        4.8918970127
 H        -9.6801841019        6.9295826628        3.4352915836
 H        -7.8758659895        4.7954066418        0.8576658227
 H        -6.9336401420        5.7294411278       -0.3764057341
 H        -8.8226086048        6.8938519370       -1.3301960733
 H        -9.9387624002        6.0442186574       -0.1158904413
 H        -8.3803123547        5.0834135984       -4.9329805400
 H        -9.2661380300        4.0027858124       -5.9078790719
 H        -6.8826565166        3.1768075074       -5.9758605850
 H        -7.6791096249        2.0493724694       -4.9387677875
 H        -4.2087878843        0.6268645869       -1.7899274453
 H        -3.8755926477       -0.3111132995       -3.3377248456
 H        -4.6865426294       -1.9058010102       -1.6039542108
 H        -5.8093396223       -1.8451030240       -2.7129259812
 H        -9.7601246933       -3.4610288679        0.1115487282
 H        -9.7999974060       -3.9354805050       -1.5774900926
 H       -10.9102877805       -2.6490815947       -0.9622339310
 H        -7.0497178573       -3.6146677148       -1.7988061012
 H        -7.4175154259       -4.0900232652       -0.1402329397
 H        -5.7430445083       -3.3551407640       -0.6290519618
 H        -8.0165321373       -0.7811603920        1.1808470873
 H        -6.5421927170       -1.7748886652        1.5370597583
 H        -8.0292206596       -2.5792693212        1.6240437950
 H        -4.0077076154        3.1577722147       -5.4526179485
 H        -4.9834285857        1.8536215228       -5.7540639471
 H        -3.4738543393        1.6558596475       -4.9211518264
 H        -3.3032879596        2.9175909184       -2.6077887583
 H        -4.4853208846        2.6066943962       -1.4067423968
 H        -4.7186556259        4.0464103181       -2.3763865027
 H       -12.1952142407        3.9897398518       -3.1102904164
 H       -11.9622380384        4.5288688352       -1.4214630726
 H       -11.4415257798        2.9319717304       -1.9441458031
 H       -11.0720474330        5.9127761911       -4.2338864074
 H        -9.4152057085        6.4198583008       -3.7197451767
 H       -10.8374270748        6.6447357295       -2.7047438668
 H        -6.4551640817        8.1900393102        4.1720511825
 H        -7.7334318511        8.8190664880        3.2730176763
 H        -6.1502174564        8.9270239688        2.5356471007
 H        -4.8081939000        6.8720764704        1.7168920508
 H        -5.7889068065        5.3984566250        1.3846418736
 H        -5.1455454747        5.6387220593        3.0395115092
 H       -13.4140580852        4.2356233282        6.9909092654
 H       -14.4278738847        4.2886674700        5.6429544113
 H       -13.5821799083        5.7823257673        6.1678226868
 H       -12.3143128518        2.3009191749        5.8174262914
 H       -10.8875669802        3.1780312510        6.0727419589
 H       -11.3364719101        2.3748526317        4.4552075332
 H       -14.4362778079        7.3446181345       -0.2068073314
 H       -15.2787310311        8.0457067975        1.1265591253
 H       -15.8635869139        8.2280681032       -0.4398929135
 H       -17.9436875973        7.1195041594        1.2433108138
 H       -18.5772804508        5.9339628064        0.1589993471
 H       -17.9432599462        7.5259248185       -0.4524147965
 Na       -8.6744722354        1.4232136627       -2.2237568639
