117

 C       -16.9057955814        4.6301550654       -1.8697265274
 C       -15.9936358477        5.6180357170       -1.0814422291
 O       -14.8516724469        5.8170008869       -1.5221403605
 C       -16.4456172674        6.1589228678        0.3176938596
 C       -15.9895753961        5.0255337181        1.3955672702
 O       -16.8218832551        4.3628578168        1.9313583253
 C       -14.4052694237        4.7332316006        1.5135629371
 C       -14.1579770771        4.5244767730        3.0798176829
 C       -12.7005453802        4.3018855195        3.3966832254
 O       -11.8580812821        4.2120885778        2.5102790195
 C       -12.2933809691        4.1124171282        4.8980379920
 C       -11.2376753378        5.2422906678        5.1564283736
 O       -11.5342960469        6.2944733310        5.6341767221
 C        -9.8089013592        4.9950653071        4.4123232445
 C        -9.0504826297        6.2938211259        4.1261378943
 C        -7.6709674577        5.9542508131        3.5468097536
 O        -7.1560968817        4.9042401653        3.8540696595
 C        -7.0464484316        6.9046359145        2.5305190520
 C        -8.0033287944        7.0318589761        1.3331619952
 O        -8.7260558603        7.9720110825        1.1213249489
 C        -7.9213538779        5.8403918326        0.3115088158
 C        -9.2979605101        5.7030347421       -0.4399440211
 C        -9.3817256933        4.5766744233       -1.3652914460
 O        -8.7809461725        3.5620858541       -1.1280710970
 C       -10.2238094009        4.7009496330       -2.6850441738
 C        -9.6123664768        3.7475650447       -3.7753670703
 O        -9.7360981381        2.5137145837       -3.6356041397
 C        -8.6907496281        4.2766066900       -4.9610914986
 C        -7.3660002728        3.4165041954       -5.0326335506
 C        -6.5259301908        3.4541871952       -3.7745079287
 O        -6.7524163982        4.2129847142       -2.9026812088
 C        -5.1530808466        2.4372719389       -3.6770687998
 C        -5.6024151755        0.9500344672       -3.3526066908
 O        -6.6774106333        0.5231463448       -3.7304468862
 C        -4.6710497796       -0.0618015416       -2.7156736801
 C        -5.4527463729       -1.2288787347       -2.0674844830
 C        -6.5685122334       -0.8286884666       -1.1330996377
 O        -6.6561885999        0.3646846439       -0.7881982016
 C        -7.4642852179       -1.9493329463       -0.4550253819
 C        -8.8830288794       -1.8180036210       -1.1752328546
 O        -9.0610275288       -0.8024522117       -1.8155906992
 C        -9.8943090967       -2.8961771946       -1.0853392962
 C        -6.7926770880       -3.3581118713       -0.7651484131
 C        -7.5316346856       -1.6603074879        1.0571983691
 C        -4.5563902303        2.4861826792       -5.0782810450
 C        -4.3068580355        3.0393615076       -2.4933439709
 C       -11.6869049551        4.2407883333       -2.3526779116
 C       -10.1684916685        6.1844335736       -3.2459544431
 C        -6.9854496322        8.2612622128        3.2159167726
 C        -5.6760880372        6.3501498861        2.0036839622
 C       -13.4383239746        4.2410016308        5.9313676076
 C       -11.6847350690        2.6730616102        4.9986962186
 C       -15.7310367297        7.5000894974        0.6098961034
 C       -17.9748558846        6.4128993967        0.3932195806
 H       -16.5419827969        4.5958437579       -2.8676775098
 H       -17.9879232370        5.0369477704       -1.8455841438
 H       -16.7784486781        3.7057887578       -1.3469959235
 H       -13.7047228398        5.5135088727        1.0925480434
 H       -14.2205712023        3.8155461204        0.9746177934
 H       -14.8325133903        3.6491446009        3.3777246084
 H       -14.4968081731        5.3846043952        3.6630738079
 H        -9.9728537905        4.4770171624        3.4878449436
 H        -9.1855869009        4.4022088371        5.0922026235
 H        -8.9876989537        6.9062957338        5.0093923999
 H        -9.6395917730        6.9144570413        3.3727673487
 H        -7.5671741026        4.8365826505        0.7748566767
 H        -7.1265698817        6.0911500017       -0.3702142490
 H        -9.5862296588        6.7704038783       -0.7776463481
 H       -10.0112640174        5.4808927521        0.3793935421
 H        -8.5719399539        5.3531500724       -4.7955966745
 H        -9.1480933161        4.3972856501       -5.9622230010
 H        -6.7463075198        3.7542417847       -5.9457970317
 H        -7.6342635567        2.4182197737       -5.2681686928
 H        -4.1440998750        0.4362720416       -1.8645714312
 H        -4.0405814684       -0.2684569041       -3.5841914243
 H        -4.8133944252       -1.9286768253       -1.6134108681
 H        -5.9054250204       -1.8349221365       -2.8722844469
 H        -9.9494251075       -3.3095841757       -0.1141217648
 H        -9.6958183069       -3.6925665565       -1.8370366769
 H       -10.8760238852       -2.5079662298       -1.4079723162
 H        -6.7472085358       -3.5332537957       -1.8651505037
 H        -7.4076769725       -4.1112127837       -0.2698836953
 H        -5.8759502521       -3.3364745112       -0.1433545776
 H        -7.6213956922       -0.6253905011        1.1768251564
 H        -6.5587250686       -1.9583554207        1.5031113371
 H        -8.3153683451       -2.1862572891        1.5756268916
 H        -4.4171398817        3.4294030193       -5.5604338148
 H        -5.2038578676        2.0201711391       -5.7767301619
 H        -3.6208268544        2.0011107095       -5.1631406893
 H        -3.7649090659        2.2979496121       -2.0550993905
 H        -5.0621256092        3.4493155575       -1.7989647332
 H        -3.6613938791        3.8383281875       -2.8848767558
 H       -12.3242264341        4.3159709700       -3.1843202352
 H       -12.1080562590        4.8496844896       -1.5629837293
 H       -11.7127490156        3.1861543586       -2.0134377729
 H       -10.4894690990        6.2371914300       -4.2924851716
 H        -9.1373013359        6.4727867630       -3.2814250942
 H       -10.7875991242        6.8638538374       -2.6235567189
 H        -6.3080758203        8.2151300377        4.0895863066
 H        -7.9707765772        8.6973017445        3.4365666888
 H        -6.5499614590        8.9920587703        2.4213551426
 H        -5.5197150494        6.6892215792        0.9735613335
 H        -5.7338579494        5.2530574841        2.0509314409
 H        -4.8634375238        6.8987536743        2.5858498848
 H       -13.2513228025        4.9504051697        6.6918295761
 H       -13.7621584554        3.3031067730        6.3642570137
 H       -14.4078102285        4.7357264435        5.6488066238
 H       -12.3347707214        1.9282002206        4.5341539231
 H       -11.6342106364        2.3999736653        6.0140495466
 H       -10.7225931525        2.6704439281        4.4642341479
 H       -14.7092915074        7.4444082198        0.5050905803
 H       -15.8084673529        7.9180309346        1.6434841022
 H       -16.0734852973        8.2787626365       -0.0693573612
 H       -18.1320989271        7.3512651234        0.9664453550
 H       -18.4858076317        5.6759254679        0.9023703537
 H       -18.3615631425        6.5112571053       -0.5957382825
 Na       -8.3548066522        1.4263925422       -2.1183955230
