117

 C       -16.9873050371        4.6737670225       -1.8608195930
 C       -16.0069765558        5.5493810746       -1.1196947518
 O       -14.9010147843        5.7664392162       -1.5421345620
 C       -16.4303613451        6.1568902037        0.2647952924
 C       -15.9982198142        5.0660071403        1.3070681109
 O       -16.7679841775        4.4231721643        2.0614735362
 C       -14.4992647078        4.7688789280        1.5110944397
 C       -14.2752774869        4.4992867161        3.0554939062
 C       -12.7993180180        4.3217627529        3.4767376596
 O       -11.9028411850        4.1905325497        2.6019713290
 C       -12.2869425029        4.1298210668        4.9532856409
 C       -11.2189217658        5.2820187726        5.0715596401
 O       -11.5111460456        6.3291152011        5.6132294202
 C        -9.8037083529        5.1258848294        4.5706330339
 C        -9.0824601020        6.3508388267        4.0952781809
 C        -7.7637021426        5.9046131697        3.4832017550
 O        -7.2572729994        4.8270267729        3.6682743206
 C        -6.9378928339        6.9456215995        2.4606645563
 C        -7.9087344905        7.0644970895        1.2936602326
 O        -8.6779230514        7.9915421648        1.1599230496
 C        -8.0124821331        5.8713796470        0.2908689526
 C        -9.3383451009        5.7178917733       -0.4344260263
 C        -9.2614968981        4.5697972427       -1.4901916754
 O        -8.6606240263        3.5737512801       -1.2983886338
 C       -10.1904263098        4.6847215655       -2.7882531004
 C        -9.5638813912        3.6777902897       -3.8045954309
 O        -9.7886551980        2.4805632936       -3.8040625157
 C        -8.6719554337        4.1536211654       -4.8928578373
 C        -7.3751632270        3.3778352058       -5.0098857355
 C        -6.4998605731        3.4322973443       -3.7221918290
 O        -6.6520782899        4.2703284062       -2.8454125848
 C        -5.3234936342        2.4431172082       -3.5534084715
 C        -5.6645322527        0.9704655858       -3.3117694385
 O        -6.7221624426        0.5705837481       -3.7211775080
 C        -4.6189240413       -0.1007839780       -2.6998150289
 C        -5.3810484674       -1.1820229582       -1.9982636090
 C        -6.4678225731       -0.8003596044       -1.0716599918
 O        -6.8204301872        0.3244431667       -0.7777198328
 C        -7.3503039959       -1.9294354946       -0.4924911145
 C        -8.8134863672       -1.7471258169       -1.1717194162
 O        -9.1548813258       -0.7868041787       -1.7866415082
 C        -9.7936898271       -2.8795737118       -0.9936842673
 C        -6.8841276452       -3.4142599108       -0.7423431476
 C        -7.5073351874       -1.7245845935        1.0045005728
 C        -4.6303779435        2.3593931798       -5.0477542086
 C        -4.3720715832        3.0086623122       -2.4717746890
 C       -11.6040792961        4.3185089690       -2.2241253660
 C       -10.2635826719        6.1267627862       -3.3466423783
 C        -6.8079063452        8.2710388503        3.2710415377
 C        -5.5950825117        6.3522576362        2.0325533328
 C       -13.4560943670        4.3507358545        5.9847568210
 C       -11.6390204587        2.6936883636        5.0945744129
 C       -15.6403769167        7.5055643148        0.4054113965
 C       -17.9161908042        6.4651445500        0.4264895433
 H       -16.7784789356        4.7227694438       -2.9584051102
 H       -17.9273905825        5.0302689465       -1.6504649462
 H       -16.8410192741        3.6498816574       -1.3602605046
 H       -13.8740341019        5.5477654035        1.1913228544
 H       -14.2381328191        3.8763215854        0.8995212227
 H       -14.9564549974        3.6712864697        3.3151196077
 H       -14.6118310256        5.3899016255        3.6189657856
 H        -9.8929080804        4.4501047944        3.7704899670
 H        -9.1834850593        4.6934405737        5.3349635230
 H        -8.9953940360        7.0557063414        4.9441143300
 H        -9.5927312415        6.8932027193        3.2970308005
 H        -7.8384054607        4.9267287781        0.8574678887
 H        -7.2007095604        5.9260314103       -0.3926626294
 H        -9.5182575019        6.7343470623       -0.8879116490
 H       -10.0733397870        5.6030706880        0.3880067216
 H        -8.6159038239        5.2336783085       -4.9591633175
 H        -9.2134203554        4.0641622572       -5.8366766117
 H        -6.8900680067        3.8150473996       -5.8172587196
 H        -7.5753848027        2.2982549099       -5.3741090619
 H        -4.1043037861        0.3643582252       -1.9347416265
 H        -3.9948145566       -0.3653265579       -3.5859782179
 H        -4.6982319378       -1.9641820172       -1.5006862991
 H        -5.8580142750       -1.8830188326       -2.7340713095
 H        -9.7035317060       -3.2632090118        0.0078886213
 H        -9.6248212945       -3.7352283166       -1.7185539167
 H       -10.7499251116       -2.5630498975       -1.1931381541
 H        -6.7261259954       -3.5947167802       -1.7756117486
 H        -7.6530672490       -4.0891847072       -0.3161343177
 H        -6.0445965790       -3.4939633005       -0.0347880345
 H        -7.7396276288       -0.7266740533        1.2137710880
 H        -6.6697261849       -2.0419305588        1.4766364576
 H        -8.2958398228       -2.4291165664        1.3873131941
 H        -4.4008504792        3.3245932266       -5.5301450028
 H        -5.3024068727        1.9958545645       -5.8045215306
 H        -3.7037918148        1.8456790714       -5.1335196825
 H        -3.9150703314        2.1368455772       -2.0257990765
 H        -5.0287324398        3.4822459168       -1.7356226890
 H        -3.7386583654        3.7744245009       -2.9136342550
 H       -12.3650959496        4.0869543015       -2.9541666072
 H       -11.9685783919        5.0755761390       -1.5357490976
 H       -11.4846753979        3.4471594623       -1.6464846150
 H       -10.5599203467        6.1040852571       -4.4161879849
 H        -9.2138048511        6.5066696484       -3.3935984695
 H       -10.9192479483        6.7310072954       -2.8240567525
 H        -6.2326476165        8.0280816280        4.1527332191
 H        -7.7762699808        8.7999967930        3.5035523023
 H        -6.2554351369        9.0302572771        2.6586374457
 H        -5.3112552433        6.7729088965        1.0896084792
 H        -5.7845894954        5.2991574925        1.9256959788
 H        -4.8268179932        6.6852994958        2.7217993658
 H       -13.2815230967        5.1102798376        6.7630087332
 H       -13.8511298750        3.4725556169        6.4246561786
 H       -14.3131003871        4.8737708216        5.6213696788
 H       -12.2027460341        1.8933578968        4.6365921111
 H       -11.6344474744        2.4950917500        6.1669830562
 H       -10.6718527341        2.6766016735        4.5734339560
 H       -14.5149243497        7.5302650866        0.3269148897
 H       -15.7548860634        7.9016210637        1.3902420537
 H       -16.0143077749        8.2738262479       -0.2272468621
 H       -18.0431850830        7.4137245403        0.7866334840
 H       -18.4358046856        5.7866052161        1.1648190583
 H       -18.4005413799        6.3943938466       -0.5343875543
 Na       -8.3752395683        1.3424111882       -2.1393351569
