117

 C       -17.4165996723        4.5146860716       -1.4818221212
 C       -16.0394740009        5.1741430247       -1.0395898509
 O       -14.9572147315        4.8666182413       -1.4432077822
 C       -16.1557593729        6.3024772521        0.0910409917
 C       -15.8191233044        5.4578667448        1.4383211768
 O       -16.7200456326        4.8753905725        2.0209950370
 C       -14.3487455255        5.2005133154        1.8241552055
 C       -14.2666356508        5.2080988762        3.3493807655
 C       -12.9595410096        4.4949007500        3.7810320438
 O       -12.2776440422        3.8599326814        2.9380356198
 C       -12.4688587562        4.5633264869        5.1983758503
 C       -11.2912199080        5.5796948573        4.9536755506
 O       -11.4816089959        6.7640933120        5.1408403523
 C        -9.9130133313        5.0305888460        4.5114943276
 C        -8.8506020522        6.1428059994        4.2653040862
 C        -7.8405875669        5.7181903175        3.1532073890
 O        -7.6803906137        4.5572380117        2.8266131017
 C        -6.9531006824        6.7684206886        2.3777647629
 C        -7.6509472824        6.8381087623        0.9253170048
 O        -8.2929677513        7.8438233586        0.6664382728
 C        -7.4477856335        5.6859645647        0.0276159663
 C        -8.3265961721        5.8251475380       -1.3173894014
 C        -9.0495840571        4.5224535733       -1.5976642501
 O        -8.8139551484        3.5558487913       -0.9685106481
 C       -10.1488593263        4.4553696650       -2.8098814566
 C        -9.4863979344        3.3866949825       -3.8297021538
 O        -9.5850782801        2.1568830974       -3.6692930885
 C        -8.6432402648        3.9191731079       -5.0226656488
 C        -7.3468591763        3.1574777880       -5.1714305557
 C        -6.2706820934        3.5353348871       -4.0808862074
 O        -6.3358473542        4.5916778189       -3.4479126337
 C        -5.1307812762        2.5017258627       -3.6168882989
 C        -5.7896965329        1.1405821296       -3.2633818705
 O        -6.9208794878        0.8441248978       -3.5922789840
 C        -4.8488003562        0.1568476644       -2.5552582870
 C        -5.4599660295       -1.1235021185       -1.9428901560
 C        -6.6401902732       -0.8370039568       -1.0414212554
 O        -6.8218302402        0.3011376743       -0.6040340782
 C        -7.5803185796       -1.9601750742       -0.3290801961
 C        -9.0966667043       -1.8339092559       -0.7663137730
 O        -9.6091174072       -0.7803212039       -1.0841094480
 C        -9.9922565337       -3.0790852067       -0.8406870169
 C        -7.0111068403       -3.3563975006       -0.6706700387
 C        -7.6142986026       -1.7674755093        1.1724572286
 C        -4.2798529297        2.2362393811       -4.8883902385
 C        -4.3375062778        3.1212151305       -2.5239170476
 C       -11.4447333337        3.7401175547       -2.1975247926
 C       -10.5155781584        5.7771645072       -3.5632087917
 C        -7.0735944272        8.1203290924        3.0668329015
 C        -5.5352414895        6.1551030238        2.2345036827
 C       -13.5283763629        5.1306194516        6.2241959843
 C       -11.9530413046        3.1596620366        5.6091404154
 C       -15.2483719027        7.4669238587       -0.2890893191
 C       -17.6027571519        6.9088819686        0.2492448842
 H       -17.2861072641        3.4104904390       -1.5442700684
 H       -17.6573932238        4.7732084765       -2.4268507240
 H       -18.1752980503        4.9755913857       -0.8404904467
 H       -13.7198491042        6.0161659806        1.4213914406
 H       -13.8863086249        4.2486437917        1.5147543083
 H       -15.1489574610        4.7656598271        3.8420505076
 H       -14.1729402587        6.1934658337        3.6936546816
 H       -10.1169564412        4.3926651071        3.6411867603
 H        -9.5362729646        4.2331833995        5.2430511119
 H        -8.3765459741        6.3917578001        5.1806972258
 H        -9.3278444436        7.0359441184        3.8232105139
 H        -7.7925695505        4.6657688441        0.4393204477
 H        -6.4156672903        5.6047783107       -0.1899497447
 H        -7.7011949764        6.1273960342       -2.1850852807
 H        -9.0543165602        6.5351978896       -1.0886130502
 H        -8.5150383327        4.9785184066       -4.7825405472
 H        -9.1895448439        3.8084999016       -5.9891247753
 H        -7.0504547321        3.4070530848       -6.1891354802
 H        -7.4896999910        2.0279075943       -5.2081999390
 H        -4.3521706446        0.7419138561       -1.7875679374
 H        -4.0608681636       -0.0609299966       -3.3317499750
 H        -4.6588134386       -1.6403619294       -1.4832360213
 H        -5.7352980067       -1.8450950354       -2.7056661588
 H        -9.8919904217       -3.6913988799        0.0583340743
 H        -9.6217267083       -3.8238056085       -1.6284812746
 H       -10.9960408463       -2.8102912122       -0.9818565328
 H        -7.1569845653       -3.6372389140       -1.6658399251
 H        -7.3833286316       -4.0952324053        0.0428974165
 H        -5.9241314680       -3.2635938394       -0.5183326262
 H        -7.8748977123       -0.7146552879        1.4591523096
 H        -6.6415418565       -2.0041911767        1.5842851566
 H        -8.4477263083       -2.4717548356        1.6113159783
 H        -3.7209623692        3.0899336586       -5.3639190672
 H        -4.7783534734        1.7352735786       -5.7418782421
 H        -3.4766691425        1.4905658105       -4.7506842988
 H        -3.8271732057        2.3580853404       -1.8886632133
 H        -5.0651530659        3.6595172601       -1.9455101328
 H        -3.6221824619        3.8151257345       -3.0090066251
 H       -12.2241926690        3.5237432051       -2.9334949700
 H       -11.9289537703        4.3223770464       -1.3882444964
 H       -11.1852848681        2.7905283147       -1.7577770604
 H       -11.2706489028        5.5933535916       -4.3457061361
 H        -9.6202825150        6.2815582384       -3.9826113793
 H       -10.8569421905        6.5159792112       -2.9199306304
 H        -6.9520246286        8.1532580455        4.0947249293
 H        -8.0546183395        8.5097967291        2.8548205047
 H        -6.3642637031        8.7970123219        2.6255759804
 H        -5.0894583398        6.5559395258        1.3688625474
 H        -5.5555481482        5.1055892030        2.0996835635
 H        -4.9237821284        6.2988139169        3.0855913718
 H       -13.0804029084        5.5578836439        7.1567852368
 H       -14.2550912000        4.4186375505        6.5544631948
 H       -14.1371293062        5.8354549380        5.6920151861
 H       -12.7226801660        2.3661952992        5.4495440529
 H       -11.6122358575        3.2229568565        6.6548538699
 H       -11.0442204684        2.9258668933        4.9919842680
 H       -14.2659258423        7.1225270013       -0.7520089497
 H       -15.0088957193        8.2680808808        0.3892900481
 H       -15.6389256136        8.0238341485       -1.1328709464
 H       -17.5258024846        7.9031535820        0.5806972781
 H       -18.2588866401        6.3007928051        0.9758707120
 H       -18.1421029185        7.0292380223       -0.7306457602
 Na       -8.7389931252        1.2791811313       -1.6605795186
