117

 C       -17.3586227300        4.4530544691       -1.4281797473
 C       -16.1087076090        5.1767119031       -0.9600365924
 O       -15.0738259015        4.7606842471       -1.3777422857
 C       -16.1337479134        6.3198431929        0.0398266663
 C       -15.7944292170        5.5262125686        1.4182852933
 O       -16.6875601135        4.9781721474        2.0037821589
 C       -14.3745519787        5.4130915554        1.7746062097
 C       -14.1917080959        5.3522148322        3.3327930596
 C       -13.0117075845        4.4719506060        3.7619861168
 O       -12.3983339867        3.7901599677        2.9965496052
 C       -12.4798537763        4.6120367810        5.2444376905
 C       -11.2415778013        5.5898556946        5.0213180434
 O       -11.4066330217        6.7801804352        5.0627360870
 C        -9.8819631583        4.9930856902        4.5190039422
 C        -8.8833088621        6.0955471601        4.1629963178
 C        -7.8820036810        5.6595813672        3.1014406101
 O        -7.8012718200        4.4974600540        2.7894529780
 C        -6.9471507086        6.7374636660        2.3329800242
 C        -7.6236905903        6.7856055622        0.8300045592
 O        -8.2926136561        7.7664390983        0.5366166497
 C        -7.4066680556        5.6601618116       -0.0510163007
 C        -8.2705229257        5.7965171414       -1.4107396403
 C        -9.0406041984        4.5209527042       -1.6208990676
 O        -8.8103332650        3.5525365991       -0.8873847836
 C       -10.0201955498        4.3228687568       -2.7998558598
 C        -9.3432748909        3.3627330989       -3.7880986922
 O        -9.4760736453        2.1317150951       -3.5747056918
 C        -8.6035032022        3.9165964502       -5.0442445700
 C        -7.2226980914        3.3026228945       -5.2703300152
 C        -6.2828660828        3.5857559916       -4.0856993117
 O        -6.3985617057        4.6765549015       -3.5357927452
 C        -5.2291517459        2.5540075587       -3.6654537820
 C        -5.8220175428        1.1696611217       -3.2607336153
 O        -6.9527979391        0.7670392458       -3.4852452159
 C        -4.8619706369        0.1482763856       -2.4721145230
 C        -5.6125997863       -1.0919479192       -1.9940077920
 C        -6.6931620464       -0.7690671703       -0.9468294671
 O        -6.8903636383        0.3310865773       -0.4736452263
 C        -7.5758242466       -1.9841731373       -0.4016436952
 C        -9.0976533115       -1.8284245998       -0.8483935013
 O        -9.6596610292       -0.7239780902       -0.9813236510
 C        -9.9077913126       -3.1058853004       -0.7982765876
 C        -7.0519860730       -3.4304399286       -0.6198918457
 C        -7.6501475712       -1.7524292704        1.1352034900
 C        -4.4059510869        2.1541533458       -4.9520928918
 C        -4.3410548188        3.1546600400       -2.5161873024
 C       -11.3411336049        3.7714030018       -2.2722482672
 C       -10.4553047782        5.6281462791       -3.3859500834
 C        -7.0334054639        8.1543198703        2.9700684783
 C        -5.5242894839        6.2677556781        2.2418170870
 C       -13.5033926300        5.2043921554        6.2044396236
 C       -12.1195210243        3.2012551766        5.7730532236
 C       -15.1186436575        7.3624288283       -0.3056014655
 C       -17.5592377541        6.9276494142        0.1850167401
 H       -17.1064880052        3.4370290497       -1.3243475384
 H       -17.4456283119        4.5616885087       -2.5335102062
 H       -18.2313697475        4.8234178422       -0.9750452937
 H       -13.7569006200        6.1082111730        1.2449803361
 H       -14.0457283240        4.3548067047        1.4816007745
 H       -15.0675108865        4.8963766917        3.8072050911
 H       -14.0451001521        6.3307023238        3.8361193671
 H       -10.1758358476        4.3922120274        3.6365876097
 H        -9.4272916832        4.1998022395        5.1563751750
 H        -8.2910589783        6.3341904914        5.0881228292
 H        -9.3616137454        7.0037707204        3.8063948417
 H        -7.8551358874        4.7851367049        0.4489906687
 H        -6.3402075936        5.3513007048       -0.2756617692
 H        -7.5436044557        5.8197499350       -2.2571797962
 H        -8.9135465687        6.7120904616       -1.3571937567
 H        -8.6211688129        5.0264988584       -4.8936050250
 H        -9.2301178573        3.6053946960       -5.9106805442
 H        -6.8904437594        3.7789927062       -6.1592470618
 H        -7.2591930419        2.1678616938       -5.5453323351
 H        -4.2526539914        0.5907220465       -1.7182960927
 H        -4.1730065024       -0.1154167570       -3.3502922950
 H        -4.8235694043       -1.7588898497       -1.6118860076
 H        -5.9991317627       -1.6302958814       -2.8034182227
 H        -9.6548152147       -3.6003898171        0.1792790331
 H        -9.6203524831       -3.8439369368       -1.4905079673
 H       -11.0152050749       -2.9277043247       -0.7959779913
 H        -7.1850047005       -3.7499438988       -1.6624592667
 H        -7.5349253108       -4.1311439603        0.1170057829
 H        -5.9794946888       -3.4725045863       -0.3841471149
 H        -8.0227959485       -0.7079640985        1.4077056784
 H        -6.5923406199       -1.8062407255        1.4949309198
 H        -8.2925283882       -2.4602816360        1.5894236274
 H        -3.7748840646        2.8809426188       -5.4636720178
 H        -4.8761153966        1.6001540706       -5.7642940782
 H        -3.6863218535        1.3838444451       -4.6614371961
 H        -3.8832350087        2.4160958238       -1.7837362803
 H        -5.0602703604        3.7421122730       -2.0354046995
 H        -3.5976495730        3.7529633138       -2.9845075271
 H       -12.0521855056        3.4864313806       -3.0988465472
 H       -11.8743416925        4.4734986616       -1.6194922203
 H       -11.1990294503        2.8640511989       -1.7079039320
 H       -11.0749828530        5.4594246429       -4.2575086680
 H        -9.6101452228        6.2855310268       -3.6416395784
 H       -10.9725473382        6.2322069991       -2.6682532905
 H        -6.8559523900        8.2182317295        4.0676256334
 H        -8.0045925488        8.5940864079        2.7830134269
 H        -6.2814041312        8.7656360461        2.6077164692
 H        -4.9448348102        6.8338399679        1.4747228420
 H        -5.4228756804        5.1990844185        1.9821856510
 H        -5.0510191446        6.3320347765        3.1849476395
 H       -13.0618959130        5.6787854695        7.1254674060
 H       -14.1723003851        4.3958785281        6.5891589641
 H       -14.2248041915        5.8084281004        5.6823574737
 H       -13.0389546770        2.6342423358        5.9661887759
 H       -11.4596186334        3.2501759983        6.6841596428
 H       -11.5198274558        2.7536545572        4.9910868139
 H       -14.1174416294        6.9330518289       -0.5893079654
 H       -14.9249139787        8.0904219175        0.4551681655
 H       -15.3043952058        7.9709912904       -1.1706551375
 H       -17.5868107138        7.9042185640        0.6689627872
 H       -18.1425566182        6.1905953870        0.7951682697
 H       -18.0523579651        7.0544449246       -0.7838959809
 Na       -8.7306040096        1.2632174437       -1.6265394383
