117

 C       -13.4871415774        3.2593347679        0.2659096902
 C       -13.4800406345        2.1917861545       -0.8131097486
 O       -13.3301726800        2.5951450941       -1.9960220791
 C       -13.3492094298        0.7207440982       -0.4445034639
 C       -11.8051421264        0.3144276589       -0.8050967555
 O       -11.2588389906        0.6379330750       -1.8638316167
 C       -10.9624551546       -0.6034479403        0.0853188755
 C        -9.7512004143        0.2481427001        0.7819018742
 C        -8.9219263653       -0.7107376284        1.5803740896
 O        -9.2948314352       -1.0547114327        2.6868007081
 C        -7.3881224201       -0.8512328541        1.1914369020
 C        -6.9860095327        0.5297778852        0.5888341380
 O        -6.6167668907        1.4281596871        1.2383818359
 C        -7.2939463281        0.5589831393       -0.9686541110
 C        -7.4741912842        1.9655947935       -1.5602131374
 C        -8.0004512033        1.7045313126       -3.0390565308
 O        -9.2355295836        1.5922014185       -3.2780323361
 C        -7.0206264578        1.3530985406       -4.2746173615
 C        -7.1944410788        2.3800225892       -5.4393201420
 O        -6.1365003119        2.7704107199       -6.0259032560
 C        -8.5111708754        2.8162949869       -6.2159041745
 C        -9.1107755566        4.1804555663       -5.7911112689
 C       -10.1097666339        4.3221067456       -4.6943497339
 O       -10.9614624207        3.4729327480       -4.4976735961
 C       -10.2394763761        5.6475651029       -3.7566826802
 C        -9.5989747252        5.3060643090       -2.3674381804
 O        -9.9229722411        4.2470116795       -1.7769828969
 C        -8.6654114460        6.2127733128       -1.5476206775
 C        -7.6859444674        5.6121410464       -0.4539417653
 C        -7.8262180404        6.5620342117        0.8645037051
 O        -8.1020226763        7.6878000565        0.6947679525
 C        -7.5349844315        5.9460647566        2.2769616443
 C        -8.9314856376        5.3996882167        2.7625587751
 O        -9.3489765451        4.4583955585        2.0883586999
 C        -9.6876779838        6.0322586775        3.8317542562
 C       -10.8472516990        6.8426953148        3.2158051538
 C       -11.4803632242        7.5590091331        4.4433294925
 O       -10.7527037543        8.1297743183        5.2798761541
 C       -13.0758940682        7.8791587644        4.5319621686
 C       -13.8520124141        6.6495231382        4.8287795531
 O       -13.4328596674        5.5416004829        4.4402538088
 C       -15.0964249748        6.5726126952        5.6537889413
 C       -13.1527997313        9.0389168271        5.5459798854
 C       -13.8057726389        8.4107065073        3.1154049731
 C        -6.6175948974        4.7908967735        1.9400084493
 C        -6.8407141803        7.0005585645        3.1812105826
 C        -9.8167608447        6.9547972429       -4.3224981002
 C       -11.6750525145        5.8371316572       -3.4574120200
 C        -5.4354946027        1.2518414950       -3.8208368723
 C        -7.4551510045        0.0406839495       -4.9770343794
 C        -6.6801741711       -1.2434443116        2.6727196066
 C        -7.0783520865       -2.1073856996        0.2869609976
 C       -13.7076932484        0.4704786061        1.0469194109
 C       -14.1580827185       -0.3382860876       -1.3275047120
 H       -14.0926028985        3.1662426379        1.1466200569
 H       -13.6029989888        4.2697050846       -0.0596752335
 H       -12.4430966699        3.2725988036        0.5841908315
 H       -10.5769691997       -1.4403508386       -0.5657127770
 H       -11.5026373517       -1.2644261630        0.7386201000
 H       -10.1538310537        0.8705141871        1.7034611069
 H        -9.3019616565        0.9721819833        0.1411542217
 H        -8.1705191944       -0.0255298843       -1.1336986784
 H        -6.5699398159        0.0989389780       -1.5650027522
 H        -6.4796425927        2.6023417232       -1.5508778961
 H        -8.2218928129        2.3012209823       -0.7956839106
 H        -9.3048089671        2.1570397842       -6.0101120914
 H        -8.1838790332        2.8494619488       -7.2826693529
 H        -9.8221984987        4.5670292821       -6.6437238894
 H        -8.2448739509        4.8227660958       -5.7690439313
 H        -9.4813148122        6.8038000753       -0.9898167886
 H        -8.1877859318        7.0169753398       -2.0379887462
 H        -6.6571787085        5.5535170093       -0.7972137383
 H        -8.0377807759        4.6000480842       -0.1729363708
 H        -9.0881984730        6.5414929748        4.6464957776
 H       -10.0711307895        5.1991110325        4.3674489420
 H       -11.4659502154        6.1534106839        2.6674580217
 H       -10.4607276612        7.6451828531        2.5816831094
 H       -15.5345641371        5.5899473025        5.7049840761
 H       -15.9454873766        7.1592952555        5.2659642149
 H       -15.1457639186        6.8414021245        6.6558467406
 H       -14.2508090163        9.3752140533        5.5360624602
 H       -12.4809211059        9.8725602727        5.3701133715
 H       -12.9628967275        8.5524253426        6.5864097262
 H       -13.6133443088        7.6821171895        2.4437073044
 H       -13.2113168271        9.2934146812        2.7681275199
 H       -14.7879214549        8.4911811775        3.2248862423
 H        -6.2584122742        4.3706983140        2.9334045855
 H        -5.6439570144        5.0744908592        1.3137272861
 H        -7.0470655305        4.0638678013        1.3470652906
 H        -6.3672096614        6.6051089424        4.0743580524
 H        -7.3594756474        7.8868480333        3.5450371466
 H        -6.0802231961        7.5465191664        2.6404667783
 H        -9.8869372282        7.7641104244       -3.5852001405
 H       -10.4324741854        7.2707812548       -5.0911706671
 H        -8.7472655482        6.9143677278       -4.5665019819
 H       -11.8537689886        6.4233815117       -2.5751929481
 H       -12.1535905117        4.8688290609       -3.2094048130
 H       -12.2434085677        6.2561457847       -4.2602102472
 H        -4.9457761348        2.1327125612       -3.3337990401
 H        -4.8493413578        1.2107897111       -4.7670134257
 H        -5.2954866229        0.3215812724       -3.2656354459
 H        -7.0562034011       -0.8069832425       -4.3283096550
 H        -6.8605147004       -0.0554963283       -5.9062080018
 H        -8.5477112804       -0.0876257570       -5.1473531075
 H        -5.5871073812       -1.1281695223        2.5402841579
 H        -6.8877470454       -2.2775784263        2.9818661394
 H        -6.8904787346       -0.6659358680        3.6187146133
 H        -7.1097214157       -3.0813171711        0.8287002392
 H        -6.1404408228       -2.0349919640       -0.2013938283
 H        -7.9801254329       -2.3402459377       -0.4684183999
 H       -14.5576796337        1.0475909010        1.5616246717
 H       -12.7891130412        0.7235894511        1.5692620877
 H       -13.8382811139       -0.6204047222        1.2883768308
 H       -15.2159894313       -0.1350002016       -1.4096398357
 H       -14.0949146373       -1.1587226495       -0.6634933470
 H       -13.6165550769       -0.4232709734       -2.2430315926
 Na      -11.3011617431        2.6430609487       -2.6404669980
