117

 C       -17.4444909134        4.3193532602       -1.4175207542
 C       -16.1442626316        5.0283190833       -0.9903674691
 O       -14.9866445137        4.6881484416       -1.3459274468
 C       -16.1637470910        6.3071854543        0.0399719951
 C       -15.8052712680        5.6320541282        1.3618865892
 O       -16.6960885575        5.1332617595        2.0158518958
 C       -14.2878807370        5.5299930690        1.7659638081
 C       -14.1195261095        5.4402488299        3.3140492035
 C       -13.0232932094        4.5011722487        3.7476353927
 O       -12.5538818226        3.6838749824        3.0162385358
 C       -12.4874181914        4.6292146440        5.2664588923
 C       -11.2199199766        5.5930823947        5.0355639742
 O       -11.3470214666        6.8043530740        5.0626798100
 C        -9.9037919538        5.0061488303        4.5178028059
 C        -8.9395003271        6.0816550121        4.0900868596
 C        -7.9410313536        5.5896382050        3.0249476743
 O        -7.8421022916        4.4324351305        2.6819206551
 C        -7.0403612586        6.7259048860        2.2508755460
 C        -7.6223869759        6.8537922980        0.8137868049
 O        -8.3153805313        7.7668966333        0.4517718053
 C        -7.2811995815        5.6248898327       -0.0997008440
 C        -8.1880351287        5.6692778141       -1.3540639406
 C        -8.9414395996        4.3815546692       -1.6014004712
 O        -8.8338771682        3.3788389384       -0.8480994744
 C       -10.0086555576        4.3093444945       -2.7756395473
 C        -9.3011655313        3.3128952405       -3.7863887894
 O        -9.2535485856        2.1500215359       -3.6146265226
 C        -8.6508792437        3.8905933497       -5.1088556193
 C        -7.1975540960        3.3348160406       -5.3708724773
 C        -6.3635266175        3.6312810606       -4.1290814404
 O        -6.3880181410        4.6845703643       -3.5769062581
 C        -5.2955630190        2.5023230264       -3.6547118094
 C        -5.8761056368        1.1288477346       -3.1142453131
 O        -7.0088010200        0.8381090492       -3.3744739919
 C        -4.9279929331        0.0638553738       -2.4096508829
 C        -5.8166942161       -1.1031188351       -2.0155463083
 C        -6.7830718564       -0.8012647971       -0.8601856702
 O        -6.8997176170        0.3396385986       -0.4728801575
 C        -7.5892265130       -1.9771565159       -0.3601147240
 C        -9.1008245964       -1.8387097771       -0.7507689913
 O        -9.6292133005       -0.7756454276       -0.9719617930
 C        -9.9002822231       -3.1102572841       -0.7640042230
 C        -7.0417105424       -3.3486281814       -0.6820468124
 C        -7.6822059609       -1.7125191527        1.2311856914
 C        -4.4596566308        2.1395646121       -4.9227381221
 C        -4.3068091004        3.2497187085       -2.6501345403
 C       -11.2819892071        3.5952376480       -2.2508153364
 C       -10.3270487620        5.7663420825       -3.3846198402
 C        -7.0415848184        8.1431942405        2.8739049648
 C        -5.5539133685        6.3303137458        2.2713145550
 C       -13.4492619573        5.3726704065        6.2551029659
 C       -12.1376906902        3.2230372889        5.8889461102
 C       -15.0206818071        7.2895207975       -0.3347228986
 C       -17.5651566031        7.0318251475        0.1443418602
 H       -17.3185576657        3.2888775999       -1.1967708442
 H       -17.6065169309        4.3588663612       -2.5545868007
 H       -18.2438044612        4.7974438767       -0.9042830022
 H       -13.6896461201        6.3682666109        1.3880879420
 H       -13.8904250581        4.6040689335        1.3102091812
 H       -14.9997296166        5.0954513098        3.8695238641
 H       -13.8844825433        6.4844223036        3.7484663275
 H       -10.0936976313        4.2647446255        3.7194646194
 H        -9.5050763558        4.4054243761        5.2872382934
 H        -8.3174816076        6.4022629346        4.9877612493
 H        -9.4394407549        6.9703006620        3.6934473046
 H        -7.4016094971        4.6981376267        0.3770094111
 H        -6.2539203900        5.5862751046       -0.5816089775
 H        -7.5011081830        5.8666833139       -2.1671141888
 H        -8.9441168900        6.5595162878       -1.2013957689
 H        -8.6420007019        4.9747201025       -4.9493826311
 H        -9.3797680637        3.5653202938       -5.8676461543
 H        -6.7945503712        3.8887350753       -6.2657459782
 H        -7.1220378868        2.3298863924       -5.5920668016
 H        -4.5238562448        0.5213721772       -1.4858433702
 H        -4.1176049554       -0.0605903498       -3.0861149693
 H        -5.0842407333       -1.9210312053       -1.7667797983
 H        -6.3633324902       -1.4683330797       -2.9026791863
 H        -9.8343590992       -3.7661243814        0.1037561826
 H        -9.5405970935       -3.7061545537       -1.5666988526
 H       -10.9779790400       -2.8415072257       -0.9215006358
 H        -7.0867278669       -3.5020588662       -1.8295536683
 H        -7.6518600382       -4.0902758583       -0.1325310126
 H        -6.0207811688       -3.5380459512       -0.2897380299
 H        -8.1309188516       -0.7922190347        1.4432014079
 H        -6.6409689742       -1.6291543668        1.6003789852
 H        -8.2686261261       -2.4491882377        1.6823379793
 H        -4.0531610148        3.0119189052       -5.3423708513
 H        -4.9538441282        1.6603344995       -5.7390535716
 H        -3.6141408246        1.4794562833       -4.8806387048
 H        -3.6905770908        2.5741860741       -2.1655281213
 H        -4.9962485585        3.7534327446       -1.9479789127
 H        -3.6575600446        3.9104704908       -3.2104532169
 H       -11.9064158403        3.2352465080       -3.0647312129
 H       -11.9300377030        4.1826259903       -1.6150542664
 H       -10.9964630665        2.6542135897       -1.7043548771
 H       -10.7950366462        5.6407921058       -4.3420016095
 H        -9.4496172054        6.3436908908       -3.5491298956
 H       -10.9531973578        6.4771948165       -2.7451223523
 H        -6.6422047571        8.0553549004        3.9240346404
 H        -7.9492602911        8.7358665501        2.9123103788
 H        -6.1863022618        8.7248829054        2.4763884663
 H        -4.8746287904        7.0423170261        1.7251593725
 H        -5.3242005620        5.3054876734        1.8757834789
 H        -5.2467518153        6.2392219890        3.3689945090
 H       -12.8654621448        5.5674608250        7.1296679626
 H       -14.3277842828        4.7289804328        6.6024488945
 H       -13.9620925939        6.2772727660        5.8141816533
 H       -13.0536078920        2.9152509402        6.3621359578
 H       -11.3236734019        3.2325545706        6.6092332603
 H       -11.8126535604        2.5665660664        5.1061870886
 H       -14.1376483191        6.8247241444       -0.5463697014
 H       -14.7651148600        7.9830622124        0.4904486027
 H       -15.1035953785        7.9664197683       -1.1882613166
 H       -17.5585104317        7.9027439852        0.8872887720
 H       -18.2814675526        6.3752862421        0.4773631194
 H       -17.8393171020        7.4179208339       -0.8134007697
 Na       -8.7247761398        1.2963622344       -1.5588215814
