117

 C       -16.9388602653        3.9843637070        0.0933110806
 C       -15.7131944040        4.6971126145       -0.4132946974
 O       -14.7267737695        4.1480372381       -0.9468264545
 C       -15.6970780859        6.2333026396       -0.3014666187
 C       -15.6073337835        6.5317903717        1.2416076773
 O       -16.2771820766        7.2908483049        1.8503581899
 C       -14.5199973238        5.6280478920        1.9939149231
 C       -14.3615040239        5.8499631236        3.4397278156
 C       -13.4577300742        4.7063594332        4.0822322365
 O       -13.6055756580        3.5449880422        3.7165665593
 C       -12.5514037415        5.1267420725        5.3887221341
 C       -11.3789139842        6.1306749927        4.9534565710
 O       -11.3291562007        7.2711933142        5.3747837664
 C       -10.3677373527        5.5661413471        3.8871862333
 C        -9.3162445782        6.5433693649        3.4408248845
 C        -8.0932813230        5.8485763214        2.9249603492
 O        -8.0081857722        4.6480715837        3.1072046387
 C        -6.9349484071        6.6367939087        2.1566995624
 C        -7.5777253023        6.7573763367        0.7629380191
 O        -8.4062736108        7.6075203136        0.4995134034
 C        -7.2420648418        5.7167201653       -0.3681409125
 C        -8.1676085314        5.8229072154       -1.5331187156
 C        -8.7749089159        4.4527615356       -1.9813556452
 O        -8.2805712696        3.4491672858       -1.4964127855
 C        -9.9959249377        4.3724083109       -2.9705803644
 C        -9.5290950637        3.3530266212       -4.0394169039
 O        -9.9246915420        2.2341975497       -3.8487984485
 C        -8.5563320417        3.6818497284       -5.1924111490
 C        -7.4295170641        2.6603540765       -5.4236342003
 C        -6.2690801847        2.9792940014       -4.4960647771
 O        -6.1774818438        4.1027366455       -3.9761794419
 C        -5.1830877781        1.9078717393       -3.9946881580
 C        -5.7708771542        0.8956104659       -2.9814740074
 O        -6.8660268456        0.3714628598       -3.1724548377
 C        -4.9541245416        0.5719306090       -1.6941679478
 C        -5.4074000526       -0.7222613405       -0.9976712707
 C        -6.8288066168       -0.6939331633       -0.4485847940
 O        -7.4038324776        0.3853356100       -0.3585112950
 C        -7.6757797400       -1.9965989968       -0.0109336405
 C        -9.1558762136       -2.0569445084       -0.6657524286
 O        -9.6596158029       -1.1158992605       -1.2731569288
 C       -10.0056381465       -3.2496020831       -0.3684278542
 C        -6.9316218126       -3.3631079572       -0.3120933847
 C        -7.9033556480       -1.8779774914        1.5178407965
 C        -4.8355089964        1.0562990725       -5.2706274172
 C        -3.9148094710        2.5670132218       -3.4360431626
 C       -11.1178189072        3.8313670051       -2.0455941563
 C       -10.4142580470        5.6963365553       -3.5712520232
 C        -6.7761231203        7.9460903485        2.9294525381
 C        -5.5810823366        5.9081117105        2.2659071632
 C       -13.5666872177        5.7662514113        6.4156294357
 C       -11.9645081529        3.8169574339        5.9759966003
 C       -14.4124247617        6.7799847379       -1.0181261845
 C       -16.9932585995        6.8803022029       -0.9034220451
 H       -16.8717417276        2.8581654089        0.1331480876
 H       -17.8081807997        4.3043964467       -0.4080309612
 H       -17.1095740193        4.1764768725        1.1882669274
 H       -13.6197408426        5.7929989661        1.4542649577
 H       -14.7541469028        4.5512187553        1.8763626345
 H       -15.3292163648        5.8985030414        3.9525673150
 H       -13.8092300615        6.8271340401        3.6294346107
 H       -11.0500130125        5.2583336977        3.0944499364
 H        -9.8988568916        4.6897091128        4.3092704877
 H        -9.2008321508        7.2220114352        4.3006582991
 H        -9.6753412952        7.1693774485        2.6443298060
 H        -7.2306193069        4.7474468923        0.0446363463
 H        -6.1603164840        5.9373350990       -0.5786828588
 H        -7.6306109569        6.2063740865       -2.4393830791
 H        -8.8359231382        6.6814495737       -1.3757438411
 H        -8.1749573795        4.6904722148       -5.0560563326
 H        -9.2052272105        3.7241877514       -6.0805795952
 H        -6.9852180118        2.7076146278       -6.4665689534
 H        -7.6192633652        1.6666503735       -5.1848364617
 H        -5.0093321825        1.5120920724       -1.1583157188
 H        -3.9132249443        0.5321870137       -2.0557985939
 H        -4.7045921563       -0.8488735754       -0.0938615964
 H        -5.1738129582       -1.5522059379       -1.6919710751
 H        -9.8988514433       -3.5632112467        0.6565795577
 H        -9.6789589626       -4.0804098951       -1.0324498974
 H       -11.0213183191       -3.1323342792       -0.6384052724
 H        -6.6979246075       -3.6850423443       -1.3719495885
 H        -7.5381104174       -4.1294376288        0.1873050463
 H        -5.9074296827       -3.4866112881        0.0815424282
 H        -8.2443406263       -0.9220605737        1.6974327654
 H        -7.0572147024       -2.0998777416        2.0916123645
 H        -8.6410494328       -2.6108162510        1.9050903610
 H        -4.3908369166        1.5230692629       -6.1033578065
 H        -5.6523237376        0.5861599306       -5.7713594124
 H        -4.2456768326        0.2025136029       -5.0811722541
 H        -3.1361253405        1.9375812754       -3.1922837348
 H        -4.1304490379        3.1052559222       -2.4725452631
 H        -3.6029459855        3.3752166571       -4.1104804470
 H       -12.0648399776        3.6287976713       -2.5146534029
 H       -11.2187394339        4.5001914897       -1.1955136231
 H       -10.7183639022        2.9050872520       -1.5377693543
 H       -11.1358195086        5.5940416691       -4.3621382886
 H        -9.5229362759        6.1698314113       -3.9151716207
 H       -10.7976475343        6.4380313789       -2.7919051986
 H        -6.7706884399        7.7526855589        4.0204360928
 H        -7.6216999994        8.6331368335        2.7800761394
 H        -5.7765731689        8.4123448327        2.6046421252
 H        -4.8990941730        6.3466600415        1.5127190078
 H        -5.5888938917        4.8277322849        2.0249885396
 H        -5.0860921129        5.8341026536        3.2887975207
 H       -13.1662738301        5.5444674951        7.3598561291
 H       -14.5200084628        5.1964867438        6.3651991360
 H       -13.6173319904        6.8541169142        6.1751711330
 H       -12.7543305722        3.1025708115        6.1537772902
 H       -11.4866393566        4.0459528021        6.9239269678
 H       -11.3338150720        3.2454212127        5.3178183077
 H       -13.5079902100        6.4789165255       -0.6481536187
 H       -14.3156169104        7.8842148277       -1.0849128892
 H       -14.3953047253        6.4980925267       -2.0777848115
 H       -17.2827746782        7.6420142916       -0.1606965386
 H       -17.7237774693        6.1750217754       -1.1069957442
 H       -16.8321133400        7.4587300054       -1.7806303037
 Na       -8.9656769260        1.1597114471       -1.8959345610
