117

 C       -16.9420232252        3.9332753653        0.0237136581
 C       -15.8067964678        4.7450356537       -0.5167368651
 O       -14.7790598594        4.1538537627       -0.8816092875
 C       -15.7597034643        6.3047973607       -0.2809477642
 C       -15.5677136648        6.4426730630        1.2530800337
 O       -16.3288555957        7.1037570364        1.9290244227
 C       -14.4511725877        5.5462422524        1.9230171734
 C       -14.2912066989        5.8273692929        3.3624805690
 C       -13.5090831449        4.7196616069        4.0881570306
 O       -13.5695938585        3.5879892348        3.6911353330
 C       -12.6274578350        5.0482026863        5.3429407953
 C       -11.4286214985        6.0454585585        4.9169571703
 O       -11.3653520129        7.1637595524        5.4099078188
 C       -10.3511764388        5.5549911593        3.9505430406
 C        -9.3030347829        6.5538559309        3.4931683512
 C        -8.1128349764        5.7380695856        2.9719809664
 O        -7.9171238194        4.5387120295        3.0237796144
 C        -6.9664467016        6.6417521295        2.1580828635
 C        -7.5750057237        6.8432163772        0.7688500008
 O        -8.3558401702        7.6901233382        0.4108246289
 C        -7.1726469103        5.7421546003       -0.3455155922
 C        -8.1065352182        5.7881195270       -1.5070480743
 C        -8.7236378437        4.4330611057       -1.9311310946
 O        -8.2399548938        3.4157045078       -1.5042412194
 C        -9.9851008992        4.3976486222       -2.8220980232
 C        -9.5512907487        3.3244872282       -4.0077930469
 O        -9.8521770481        2.0950389317       -3.9391182965
 C        -8.7068035761        3.7580806605       -5.2220353484
 C        -7.5022167297        2.7450511794       -5.2580973590
 C        -6.2348627656        3.0772955214       -4.3194406371
 O        -6.0117654922        4.2173742141       -4.0230983967
 C        -5.1754253761        1.9625649762       -3.9942909242
 C        -5.8049564682        1.0018353225       -2.9767084264
 O        -6.8733598178        0.5016861061       -3.1120278187
 C        -4.9107251692        0.5531075687       -1.6233862835
 C        -5.4178856425       -0.8709616294       -1.1587715111
 C        -6.8153666357       -0.7095169185       -0.5249073645
 O        -7.3430421692        0.3612372146       -0.4272488977
 C        -7.7033188114       -1.9680705870       -0.0260345471
 C        -9.1848889378       -2.0040603146       -0.6937967882
 O        -9.7482804517       -1.1377085564       -1.3197982522
 C        -9.9433032629       -3.3019648932       -0.3484988214
 C        -7.0329320638       -3.3405347469       -0.2901523937
 C        -7.8433853528       -1.9204502152        1.4900807860
 C        -4.7565136741        1.0559369677       -5.1923692674
 C        -3.9209635032        2.6984895942       -3.4269628177
 C       -11.1923776968        3.8958719035       -2.0227936275
 C       -10.4347929229        5.7418621918       -3.4837444377
 C        -6.7843852021        8.0252040313        2.8700875316
 C        -5.6559678671        5.8663254008        2.1585021515
 C       -13.5050319429        5.7608743645        6.3272137291
 C       -12.0338087313        3.7882743326        5.9455998601
 C       -14.4812636069        6.8241458220       -0.8981997877
 C       -17.0133315801        6.9622912773       -0.8433226288
 H       -16.8764041418        2.8824663075       -0.0919653347
 H       -17.9116778659        4.3680294419       -0.4539825963
 H       -17.0699596536        3.9846094487        1.0707542209
 H       -13.5226095739        5.6811236471        1.3666617692
 H       -14.7278851388        4.4773657897        1.8146950509
 H       -15.2744562834        5.7785816821        3.9534108068
 H       -13.8607774715        6.7985182530        3.5193291755
 H       -10.9341191535        5.2041583071        3.1513805406
 H        -9.8089834904        4.7102385237        4.4466607251
 H        -9.0745230317        7.2168441532        4.3449901992
 H        -9.6148903605        7.2482003830        2.6551379564
 H        -7.2736774154        4.7591482523        0.1397782706
 H        -6.1391073686        5.7931508144       -0.5465371414
 H        -7.5648462105        6.2350790328       -2.4428877467
 H        -8.8565438992        6.6013183373       -1.3785083465
 H        -8.4247314183        4.8015027532       -5.1002601610
 H        -9.3476366545        3.6350271822       -6.0843752588
 H        -6.9819301547        2.7345102333       -6.1764940519
 H        -7.7585025143        1.6575978062       -5.0271742219
 H        -4.9605725419        1.3625646353       -0.9719666339
 H        -3.8613894570        0.5270857939       -1.9680519936
 H        -4.6805771150       -1.2500152915       -0.3534636215
 H        -5.2969433771       -1.5298053287       -2.0505938804
 H        -9.6650851301       -3.5991669164        0.6828542618
 H        -9.6895113553       -4.0781190230       -0.9808200171
 H       -11.0759172094       -3.2698964346       -0.4292010231
 H        -6.8412394914       -3.7409695708       -1.3134282279
 H        -7.5575969132       -4.1052750817        0.3332454670
 H        -5.9956288529       -3.3576822110        0.0377647406
 H        -8.2485987301       -0.9903519137        1.7865009773
 H        -6.8893511663       -2.1512756023        2.0146857595
 H        -8.4253501644       -2.6941708693        1.8550784261
 H        -4.4410615221        1.6125349792       -6.0591013052
 H        -5.3860400511        0.3642257283       -5.7125447095
 H        -3.8799257489        0.4603889033       -4.9781030090
 H        -3.0567456687        2.1122558133       -3.2340177383
 H        -4.1266087773        3.1517069236       -2.4569864944
 H        -3.7536870643        3.5396672221       -4.0742805088
 H       -11.9993947726        3.6821373519       -2.7724632078
 H       -11.5287802875        4.5387765836       -1.2105825194
 H       -10.9366859768        2.9597649983       -1.5310474658
 H       -11.1151865628        5.5121021429       -4.2882487621
 H        -9.5471303448        6.2400098509       -3.9053946975
 H       -10.9027763665        6.4800778694       -2.8274253490
 H        -6.4094210398        7.8833714301        3.9246367923
 H        -7.6945680066        8.6122110666        2.9635098931
 H        -6.0677477730        8.5704974130        2.3052212149
 H        -5.0026165784        6.2209127130        1.3285862078
 H        -5.7795680544        4.7852088525        1.9840986552
 H        -5.1018589423        5.8440461268        3.0734752243
 H       -12.9428604406        5.7313930237        7.2802362718
 H       -14.4140587580        5.1404611064        6.4728021270
 H       -13.6170737414        6.7735492202        5.9587499320
 H       -12.7734902639        3.0391955982        6.2132739721
 H       -11.3884577569        4.0331559165        6.8267684453
 H       -11.5214261243        3.2477272751        5.1818249097
 H       -13.5790397969        6.3143180466       -0.5302524377
 H       -14.2260382655        7.8631317247       -0.7555341294
 H       -14.4121974157        6.7172575582       -1.9648345264
 H       -17.3714636125        7.7280298786       -0.1036863981
 H       -17.7164714716        6.2110698188       -1.0534521668
 H       -16.8765324683        7.5133304141       -1.7435165897
 Na       -8.9445902855        1.1967880208       -1.8939744480
