117

 C       -16.8613469250        3.9626651755        0.1140734249
 C       -15.6253824281        4.6620021057       -0.4821977041
 O       -14.7664527977        4.0104276593       -0.9742096212
 C       -15.6288878968        6.2091191422       -0.2979127412
 C       -15.5294942421        6.5837961269        1.2886477341
 O       -16.2342753579        7.4707902424        1.7351490054
 C       -14.5262629279        5.7014810239        2.0475126178
 C       -14.3248890362        5.8931437470        3.5703048828
 C       -13.4634103411        4.7805027354        4.2116571503
 O       -13.5253229777        3.6578429586        3.7810237344
 C       -12.5906980701        5.1564086785        5.3772128104
 C       -11.5098555393        6.1459669254        4.9037625948
 O       -11.3209469483        7.2369479941        5.3247990659
 C       -10.4952399204        5.6301030321        3.8687049608
 C        -9.4023212360        6.5962233916        3.4144766243
 C        -8.0781528967        5.7993264026        2.9560615949
 O        -7.9739655151        4.6095645044        3.1398466947
 C        -6.9616312022        6.6417708196        2.2492795716
 C        -7.5257331601        6.7658262127        0.7494759484
 O        -8.4558817113        7.5574884439        0.6743490904
 C        -7.2357438040        5.7260002219       -0.3687808230
 C        -8.1597459357        5.8400640055       -1.5943936489
 C        -8.6967802372        4.5184719781       -2.0013288552
 O        -8.3478806571        3.4250540876       -1.4899233344
 C        -9.8404969517        4.4168279864       -2.9626451336
 C        -9.5342720868        3.2300959142       -4.0032537863
 O        -9.8803933169        2.1093485718       -3.8670010414
 C        -8.5305474204        3.6243437570       -5.1666045027
 C        -7.4777800390        2.5990857603       -5.4061726020
 C        -6.3156993582        2.9250665313       -4.4101925082
 O        -6.2722862614        4.0019894569       -3.8946179743
 C        -5.1953598859        1.8406233205       -4.0628212192
 C        -5.8445315468        0.8070746798       -2.9624694071
 O        -6.9302275467        0.2754258702       -3.2636443836
 C        -5.0578551968        0.4662035463       -1.6955103560
 C        -5.4903161400       -0.7076287286       -0.8356800961
 C        -6.9627628425       -0.6913097945       -0.4760047707
 O        -7.4878429698        0.3795340576       -0.2032201103
 C        -7.7031550310       -1.9805713507        0.0110141870
 C        -9.0951420757       -2.0229265995       -0.6092015815
 O        -9.4299370515       -1.0355693097       -1.2259162993
 C       -10.0007394490       -3.2316843826       -0.4462440469
 C        -6.8609682293       -3.2244717460       -0.3578995054
 C        -7.8850923631       -1.7675886966        1.5289520030
 C        -4.8466300920        1.0217488456       -5.3555737856
 C        -3.9604840034        2.5182343265       -3.6109760607
 C       -11.1015067958        3.7875359633       -2.1490647371
 C       -10.3360248835        5.7709137897       -3.6811659437
 C        -6.7778513804        8.0566246057        2.8875148705
 C        -5.6324023151        5.8629475960        2.2833819990
 C       -13.5164385687        5.8193448487        6.4478897752
 C       -11.9203761121        3.8719115161        5.9461563718
 C       -14.4495501200        6.7966496131       -1.1009324727
 C       -16.9175074274        6.8840830889       -0.8891236537
 H       -16.5332544272        2.9313163471        0.3540351318
 H       -17.7635712589        3.9406047776       -0.4198443613
 H       -17.1241277848        4.2927786967        1.1639644855
 H       -13.6605940067        5.8049682569        1.3903427333
 H       -14.8723685615        4.6861062290        1.9068111413
 H       -15.3027772318        5.9392106092        3.9754248835
 H       -13.7962084161        6.8409349647        3.8454183016
 H       -11.0848237209        5.1381444402        3.0306559356
 H       -10.0103672070        4.8309649944        4.3959276993
 H        -9.2129772213        7.2239379064        4.2831249314
 H        -9.7465647841        7.2555417473        2.6614608764
 H        -7.3547479676        4.7726892320        0.1599424483
 H        -6.1337787850        5.8406568035       -0.5614875857
 H        -7.8410617359        6.3768846919       -2.4091177845
 H        -9.0107679466        6.4727350261       -1.3105123295
 H        -8.1293581401        4.6401731647       -4.9834069807
 H        -9.0960384728        3.7311562775       -6.1236267892
 H        -7.0166781134        2.7425362744       -6.4246376339
 H        -7.7510286997        1.5845433662       -5.2864543205
 H        -5.2534534859        1.4429893342       -1.1000827546
 H        -4.0369724831        0.5533921298       -1.9977139727
 H        -4.9156245790       -0.6422393936        0.0490598716
 H        -5.2227586040       -1.6438012937       -1.3284345861
 H       -10.1239007370       -3.6182105822        0.5318879084
 H        -9.7011705625       -4.0713199307       -1.1475031591
 H       -10.9152341196       -2.9611117347       -0.8746341565
 H        -6.6347039527       -3.2425211440       -1.4010564748
 H        -7.3773936420       -4.1402716135       -0.1171232526
 H        -5.8346711045       -3.3455183310        0.0384124660
 H        -8.3521726956       -0.7548057118        1.6682748757
 H        -6.9899341529       -1.8345864485        2.0747224333
 H        -8.5468537610       -2.5386691444        1.9544323737
 H        -4.3311828758        1.4630690546       -6.1876927276
 H        -5.7087863705        0.6715396295       -5.8711491536
 H        -4.4184017394        0.0651354832       -5.1973345125
 H        -3.1587159842        1.7759330119       -3.2588106768
 H        -4.1812512601        3.0516394756       -2.7047028466
 H        -3.5366876537        3.2570274384       -4.2816945366
 H       -11.9618351969        3.6641161723       -2.7720693879
 H       -11.3215820327        4.4095034157       -1.2766659468
 H       -10.8116608635        2.8425889363       -1.6901387894
 H       -11.2278785545        5.5661879303       -4.3042451645
 H        -9.5636517553        6.3263043308       -4.2140985475
 H       -10.6200104074        6.4512533290       -2.9034993228
 H        -7.0175023294        8.1259125724        3.9377229209
 H        -7.5608965542        8.7074979971        2.4079613140
 H        -5.7324891492        8.4412179217        2.6694997760
 H        -4.8621163765        6.3504648832        1.6790162518
 H        -5.6559736326        4.8242548440        1.8960373762
 H        -5.2612426591        5.6264863078        3.3049537630
 H       -13.0483434799        5.5871829362        7.4001954081
 H       -14.4535811233        5.3205972953        6.4460015642
 H       -13.5503235651        6.8674352188        6.1685007267
 H       -12.6624017281        3.1279808693        6.1926475046
 H       -11.5121583938        4.2009639973        6.8497865618
 H       -11.1966389225        3.3072453966        5.3496281950
 H       -13.4301503066        6.5942452187       -0.7456774183
 H       -14.4762818497        7.8572478309       -1.2408855801
 H       -14.4392619148        6.4367925548       -2.1216143218
 H       -17.2019244207        7.6793478008       -0.3177301545
 H       -17.7209272424        6.1087084428       -1.0563467165
 H       -16.7018723300        7.3367169641       -1.8570376799
 Na       -8.9554615064        1.0878822642       -1.9391645699
