117

 C       -17.2891574538        4.0610769782       -0.7293104587
 C       -15.9589383174        4.8063711203       -0.8031778321
 O       -14.9509701169        4.3207904953       -1.2223471354
 C       -15.8755725475        6.2739196109       -0.1623830229
 C       -15.6386415879        6.1098979873        1.3996822396
 O       -16.5596757482        6.3512873462        2.1614405586
 C       -14.2743883066        5.6153120954        1.9527356840
 C       -14.0161342320        5.8321658385        3.3629527672
 C       -13.3449218206        4.6445695138        4.0361685507
 O       -13.2852241771        3.5670187016        3.5311068776
 C       -12.5465446325        4.9280813935        5.3436678856
 C       -11.3220504606        5.7716428604        4.9931708763
 O       -11.3525402064        6.9562681543        5.2009895927
 C       -10.2270149525        5.1963117000        4.1466743303
 C        -9.1690017945        6.2431636495        3.7408656239
 C        -8.0200314084        5.6660971723        2.8210488796
 O        -7.8535004992        4.4880207117        2.6274247220
 C        -6.9991738560        6.7047900600        2.1854737402
 C        -7.5119036905        6.7740316442        0.7040263661
 O        -8.2210028442        7.6569987817        0.2897470000
 C        -7.1391176513        5.6417421152       -0.2557148758
 C        -8.0302346981        5.6748602392       -1.4650083111
 C        -8.7593989550        4.3568161143       -1.7776251737
 O        -8.4569246703        3.3559534274       -1.1750862759
 C        -9.9496926185        4.2726746107       -2.8194034479
 C        -9.5361880468        3.2346128704       -3.9433975418
 O        -9.7342496930        1.9895223933       -3.7502976479
 C        -8.6770551182        3.8243164138       -5.1173758578
 C        -7.3650064065        2.9659936208       -5.2605960016
 C        -6.1411690972        3.4766962390       -4.2531106954
 O        -6.1090025151        4.5661950637       -3.7716844557
 C        -5.0571674763        2.3068117362       -3.9173621543
 C        -5.8250493917        1.2431288643       -3.1001706663
 O        -7.0115174531        1.0984696656       -3.0874256993
 C        -4.9974719996        0.3004143234       -2.0403508662
 C        -5.8095707415       -1.0151449638       -1.7048902762
 C        -6.8951928846       -0.6942084192       -0.6976726454
 O        -7.1216286757        0.4074983045       -0.2503129425
 C        -7.7024424826       -1.9726154568       -0.1115690909
 C        -9.1907453264       -1.9442484961       -0.6873725616
 O        -9.7084608142       -0.9431772055       -1.1346152054
 C        -9.9651071055       -3.2235721908       -0.5175625869
 C        -6.9914624223       -3.3232821672       -0.3856715595
 C        -7.8032602020       -1.9873536745        1.4693856506
 C        -4.4610266787        1.5843319028       -5.1934992659
 C        -3.9101582890        2.9856365118       -3.0779212895
 C       -11.1923727669        3.7869079433       -1.9451883786
 C       -10.4112533620        5.5761312834       -3.4829028874
 C        -7.0349613651        8.0816750458        2.8762803838
 C        -5.6028729281        6.0637434128        2.2131083777
 C       -13.4313593694        5.7004438781        6.3734824526
 C       -12.1545767148        3.5428173171        6.0588121866
 C       -14.7095221032        7.0086413350       -0.8274397755
 C       -17.2769747743        6.9894553601       -0.4579956641
 H       -17.1821406385        3.0170525983       -0.9741140982
 H       -17.9836862098        4.6206043972       -1.4554769794
 H       -17.7603629789        3.9679304611        0.2395238220
 H       -13.5645081826        6.0999091564        1.3043069919
 H       -14.2185515722        4.5402419535        1.7482312164
 H       -15.0046474839        6.0219252185        3.9132375802
 H       -13.4185581343        6.7050021415        3.5151853206
 H       -10.7339212392        4.9173535738        3.2696350300
 H        -9.7019039247        4.3354137525        4.5980154534
 H        -8.6516677992        6.6694962806        4.5774589636
 H        -9.6500798243        7.1141732380        3.2478190618
 H        -7.2439609149        4.6616966808        0.2352187566
 H        -6.1213281302        5.6339742363       -0.4733673375
 H        -7.3219375044        5.9115771883       -2.3462329755
 H        -8.7204311256        6.5224204447       -1.4259923496
 H        -8.5227025688        4.8453575394       -4.8000300457
 H        -9.1744651121        3.6840836675       -6.0557805044
 H        -6.9880065179        3.1426974169       -6.2235396061
 H        -7.4840539058        1.8126064352       -5.1897261627
 H        -4.7100687730        0.8275529273       -1.1683799750
 H        -4.0416932705        0.0757561642       -2.5494515579
 H        -4.9705071594       -1.6441834809       -1.3149884118
 H        -6.2997568554       -1.4302199010       -2.6251337501
 H        -9.8197446381       -3.6595490714        0.4707999842
 H        -9.7837140945       -3.9396260571       -1.2416108826
 H       -11.0560508466       -2.9980638346       -0.5356904606
 H        -6.7784181322       -3.5925301942       -1.4379598728
 H        -7.5303864658       -4.2545478528       -0.0532021302
 H        -6.0185480150       -3.3140870545        0.1320828196
 H        -8.2723774844       -1.1241042994        1.9112457785
 H        -6.8075932021       -2.1390412812        1.9086376477
 H        -8.3200617455       -2.8141735364        1.7502355274
 H        -3.8123903519        2.1285432848       -5.8145672831
 H        -5.0935593692        1.1561605255       -5.9048966130
 H        -3.8033671479        0.8164402435       -4.9058583560
 H        -3.2840627092        2.2507582830       -2.4757272641
 H        -4.3709851430        3.6478488541       -2.3711216297
 H        -3.2489540942        3.5799990718       -3.7040359336
 H       -12.0957140973        3.6507748592       -2.5958740387
 H       -11.4903497348        4.5976960677       -1.2657590559
 H       -11.0506913786        2.8980248777       -1.3681188159
 H       -11.0736484823        5.4242509231       -4.3417775870
 H        -9.5607540498        6.1958435330       -3.8502731944
 H       -10.9720210851        6.1236098826       -2.7677200321
 H        -6.9323146336        7.8987082788        3.9985546914
 H        -8.0196709558        8.5924488734        2.6761346550
 H        -6.3159461372        8.8348838453        2.5685755269
 H        -4.7882190751        6.6913983341        1.7242841197
 H        -5.5412919629        5.0321749063        1.7568888274
 H        -5.1724767757        6.0544479190        3.2007957848
 H       -12.7875617339        6.2284361030        7.1183457676
 H       -14.0950694108        4.9376685969        6.7629402739
 H       -13.9293705174        6.5095604850        5.8985524212
 H       -13.0633790819        3.0301153268        6.3396761584
 H       -11.5523402396        3.6721920799        6.9656157019
 H       -11.6306991871        2.8916266645        5.3720657492
 H       -13.7896312159        6.3845598532       -0.9585809851
 H       -14.2811677139        7.8595245162       -0.3874066680
 H       -14.9714360262        7.2823006584       -1.8121504742
 H       -17.1117318025        8.0349541786       -0.6288091547
 H       -17.9935084433        6.9260335646        0.3679545711
 H       -17.7013468038        6.5801656651       -1.3370494307
 Na       -8.9254138193        1.1194569049       -1.7647030313
