117

 C       -16.5907360008        3.8703400357        0.2536666804
 C       -15.4937747971        4.6316915437       -0.4099889021
 O       -14.6335011731        4.0297905311       -1.0847637863
 C       -15.4215072218        6.1857807689       -0.3150566459
 C       -15.1702776859        6.6858174341        1.1453608089
 O       -15.6891937659        7.6775934745        1.5336039310
 C       -14.2684265431        5.8140412899        2.0345502903
 C       -14.2788380029        6.1988644609        3.5405811239
 C       -13.5178264236        5.0079517346        4.2889759544
 O       -13.5819988928        3.8704615228        3.8777358244
 C       -12.5993441149        5.4532864069        5.5685419099
 C       -11.5521728266        6.3312274013        4.9434205400
 O       -11.4356006007        7.5345577456        5.2189045824
 C       -10.6013187711        5.6530993329        3.9419194117
 C        -9.4694432893        6.4854055896        3.4713755620
 C        -8.1473514398        5.8228818211        3.2136996024
 O        -7.9179520786        4.6487828745        3.4209371039
 C        -7.1186653994        6.6176946839        2.2044642504
 C        -7.7809793099        6.6220482830        0.8450380538
 O        -8.6699064096        7.3909664561        0.5646990903
 C        -7.3434694557        5.4946842602       -0.1487992171
 C        -8.1561274090        5.6632489819       -1.5034373127
 C        -8.7394699253        4.3140294747       -1.8945626108
 O        -8.5026608544        3.3118299927       -1.2568855048
 C        -9.7640013434        4.2586032030       -3.1535267553
 C        -9.3019803648        3.1493026310       -4.0756432412
 O        -9.6105495747        1.9747394728       -3.8450064501
 C        -8.7108319468        3.3770534708       -5.5140808301
 C        -7.4741614524        2.5190354357       -5.6623818858
 C        -6.4759325030        2.5627773235       -4.5057053048
 O        -6.6489177373        3.3692938094       -3.5869331041
 C        -5.3521384759        1.4972201738       -4.4047213081
 C        -5.9166326991        0.6909244045       -3.1034597305
 O        -6.8683722579       -0.0251076831       -3.2661753566
 C        -5.2730917645        0.8544156027       -1.6401538950
 C        -5.6124934527       -0.4108024949       -0.8836562013
 C        -6.9983208807       -0.4828979648       -0.2054808027
 O        -7.4810250608        0.5250564713        0.2695469162
 C        -7.7811104262       -1.8091213062        0.1444598231
 C        -9.1019089850       -1.8698798889       -0.6958508206
 O        -9.6164768351       -0.8909982418       -1.2556174445
 C        -9.8124724697       -3.1854239013       -0.6461859261
 C        -6.9063704523       -3.0441720939       -0.0363445261
 C        -8.2617007835       -1.6396672163        1.6145142159
 C        -5.2108577025        0.5292988241       -5.5669144238
 C        -3.9651637846        2.2205984646       -4.1810787224
 C       -11.1477299206        4.0157009169       -2.4185707134
 C        -9.8244849751        5.5752853718       -3.9354998875
 C        -6.9910435890        8.0813528055        2.6962115486
 C        -5.8304003216        5.9186162802        2.1964655911
 C       -13.5210420472        6.3606434840        6.4563905663
 C       -12.0221635761        4.2203743277        6.3216409808
 C       -14.3181022211        6.7143939208       -1.2397148379
 C       -16.7863636117        6.8242010821       -0.7696965382
 H       -16.3473657436        3.5230980490        1.2210240997
 H       -16.8034753633        2.8352330606       -0.2311106668
 H       -17.4514845475        4.5103910010        0.1835360743
 H       -13.2200025844        5.9137349778        1.7058609598
 H       -14.6048529908        4.8236549967        1.8299945342
 H       -15.3466089186        6.3092500964        3.8599199294
 H       -13.7897036291        7.1009652561        3.6940649814
 H       -11.2285183586        5.1979557096        3.1745841437
 H       -10.0968173853        4.7433501118        4.3430507528
 H        -9.2542190052        7.1883167235        4.2370926736
 H        -9.6176602594        7.0219354115        2.5346696562
 H        -7.6479181746        4.4579229151        0.2287634785
 H        -6.3182615472        5.5991362802       -0.3861638213
 H        -7.5252134519        5.8736724604       -2.3588338920
 H        -8.8795407347        6.4565632881       -1.5332267423
 H        -8.5828333549        4.4281795521       -5.7981075446
 H        -9.4618119331        3.1244686549       -6.2765398965
 H        -6.9443333130        2.8012448924       -6.5154504604
 H        -7.6541784230        1.3640382011       -5.7266350271
 H        -5.6763786612        1.8406521732       -1.2953115480
 H        -4.1701767524        0.9773074218       -1.8251490681
 H        -4.9176403724       -0.5009892095       -0.1004011682
 H        -5.3494361186       -1.2519105553       -1.5203263429
 H        -9.6058786557       -3.7636237792        0.2565116016
 H        -9.5539245047       -3.7771295257       -1.4326203257
 H       -10.9063332525       -2.9729541746       -0.7775390180
 H        -6.6389917428       -3.3928119966       -1.0452950180
 H        -7.3782264478       -3.9671594504        0.3787672345
 H        -6.0260763051       -2.9592211669        0.5971262513
 H        -8.5385015687       -0.6300732162        1.7821748878
 H        -7.3743798039       -1.7656469166        2.3091600165
 H        -9.1347608639       -2.2016006116        1.8414396786
 H        -4.8907207088        0.9957413754       -6.4654423247
 H        -5.9827332581       -0.1281525960       -5.9212863743
 H        -4.4280401908       -0.1774874798       -5.3943418862
 H        -3.1258578557        1.6260393419       -3.8665925236
 H        -4.0971981676        3.0948441178       -3.5028933281
 H        -3.5428140464        2.5841180179       -5.1258128012
 H       -11.9764797347        4.1486249652       -3.1603973248
 H       -11.2806364998        4.8021292578       -1.6783539336
 H       -11.2094448789        3.0135341467       -2.0627307302
 H       -10.4863305781        5.4515170382       -4.7956422125
 H        -8.8301274055        5.8085448386       -4.3853184718
 H       -10.1841133454        6.4399153839       -3.4025753519
 H        -6.4648435192        8.1221045675        3.7234549442
 H        -7.9666895931        8.6212154279        2.6652848067
 H        -6.2736082137        8.4964328498        1.9970999357
 H        -5.1640203595        6.2159456965        1.3121480967
 H        -5.9909221016        4.8225297002        1.9801525451
 H        -5.2237628900        6.1160760307        3.0737313403
 H       -12.8649979578        6.8688301660        7.1925984427
 H       -14.2400045711        5.6594039110        6.8864870982
 H       -14.0823268162        7.0382863993        5.8521987968
 H       -12.6842815038        3.7070499433        6.9891018137
 H       -11.1316422404        4.4752588566        6.9031826256
 H       -11.6071630107        3.6003358710        5.5727694898
 H       -13.3228419378        6.2546286650       -1.0238753758
 H       -14.1628432032        7.7554898523       -1.0560087670
 H       -14.4205438163        6.6054313667       -2.2852568674
 H       -16.6236969406        7.8662383305       -1.2394574550
 H       -17.4298949721        7.0532929778        0.0368102101
 H       -17.2315653553        6.1852796569       -1.4815627318
 Na       -8.5339794098        0.9499808104       -1.7865934407
