117

 C       -16.5093508093        3.8606235054       -0.0252592010
 C       -15.3100874072        4.6579463209       -0.5422271379
 O       -14.3835462702        4.0788606470       -0.9665336996
 C       -15.1817126228        6.2014338935       -0.3837074757
 C       -14.9568757089        6.6527209416        1.1093628674
 O       -15.6198240379        7.5335016906        1.6046546299
 C       -14.0097588132        5.8155569308        1.9050187359
 C       -13.8683076906        6.4270196215        3.3512481339
 C       -13.4449928208        5.3580733184        4.3596609986
 O       -13.4660555143        4.1971855305        4.0266297003
 C       -12.8397886883        5.8981843439        5.6957714422
 C       -11.4908586211        6.6298166986        5.2392377622
 O       -11.4737597100        7.8529507356        5.1579930921
 C       -10.1961545811        5.7859424935        4.9089925500
 C        -9.4054346031        6.6055632465        3.8676396558
 C        -8.1905292154        5.8643691464        3.2781448027
 O        -7.8806843359        4.7528081592        3.5911627513
 C        -7.2584142249        6.6725460590        2.1557301983
 C        -7.9073126141        6.5347329238        0.7277020342
 O        -8.8191248726        7.2778816580        0.4561468694
 C        -7.3686664034        5.4802219374       -0.3591907890
 C        -8.0485550174        5.4896590560       -1.7551704166
 C        -8.9077880924        4.2991680867       -2.0191785739
 O        -8.8974018008        3.3238260531       -1.2653656945
 C        -9.7214085457        4.1532632276       -3.3867907094
 C        -9.2355952556        2.9667968049       -4.1706705344
 O        -9.4774325414        1.7872891548       -3.9524371014
 C        -8.6041623204        3.2763861587       -5.6394852187
 C        -7.4647917082        2.3140415443       -5.8897504073
 C        -6.4181581193        2.3617499064       -4.6455416706
 O        -6.4909592504        3.2355671808       -3.8368524496
 C        -5.5592643896        1.1397294101       -4.4075089839
 C        -6.1209935281        0.4243768637       -3.0573239917
 O        -7.2522929710       -0.0578025802       -3.0691069323
 C        -5.1703594725        0.2505693992       -1.8139197345
 C        -5.5768264053       -0.8055354644       -0.8069607059
 C        -6.9728988494       -0.4910281852       -0.2756876720
 O        -7.3098818576        0.7011361414       -0.1924424161
 C        -7.8470303468       -1.6433061518        0.3726192133
 C        -9.0729200947       -2.0579592740       -0.5230219677
 O        -9.6356917414       -1.1750998241       -1.1521253102
 C        -9.4562574254       -3.5227044134       -0.6069161456
 C        -6.8809672355       -2.8914134777        0.5573361583
 C        -8.3693705911       -1.1600742718        1.7623841306
 C        -5.5727173528        0.0366497423       -5.4834577175
 C        -4.1516379970        1.7937986133       -4.2587284780
 C       -11.2105197790        3.9139150342       -2.7928800883
 C        -9.6309552513        5.5390857646       -4.0973853178
 C        -7.1549030952        8.1778541956        2.4627044855
 C        -5.8293498628        6.0052309003        2.3098067071
 C       -13.8508056972        6.9008146874        6.4070542846
 C       -12.4712004590        4.8112872032        6.6608044092
 C       -13.9922378957        6.7235110929       -1.1864096067
 C       -16.4701468375        6.8854612807       -0.8625030901
 H       -17.2598175786        4.4602869114        0.3608776912
 H       -16.0498418835        3.3348900030        0.9000048217
 H       -16.8319916538        3.1896438333       -0.7674511570
 H       -13.0514256001        5.6803797716        1.4349375051
 H       -14.4342689619        4.7834068323        1.9894140398
 H       -14.7853357891        6.7403776294        3.7220390860
 H       -13.1534347671        7.2920862829        3.4690204973
 H       -10.5150267015        4.8064386129        4.4402042385
 H        -9.6518684000        5.5542306750        5.8351002927
 H        -9.1867673143        7.5907400956        4.3363852167
 H        -9.9979111740        6.7745193349        2.9745493858
 H        -7.3113360496        4.4862435494        0.0598124946
 H        -6.3222182662        5.9162780543       -0.5852105462
 H        -7.3058725306        5.3717972830       -2.5443433865
 H        -8.6112155691        6.3936194887       -1.8917253620
 H        -8.2629604391        4.3084948704       -5.7486833781
 H        -9.4479158059        3.1177867674       -6.3572726932
 H        -6.9787499259        2.5799324398       -6.9047929182
 H        -7.8535597532        1.3374154140       -5.9620205008
 H        -5.4107440125        1.2073559521       -1.2919516533
 H        -4.1588967661        0.2223941261       -2.1590386056
 H        -4.9555094956       -0.7032860229        0.0694821008
 H        -5.3812310163       -1.8024224563       -1.1577071469
 H        -9.9243428247       -3.9582812686        0.2490703405
 H        -8.5984650924       -4.1448963151       -0.8595494237
 H       -10.2361131205       -3.5683851719       -1.4043709216
 H        -6.5810592852       -3.2940248401       -0.3791376301
 H        -7.2365598337       -3.6659861781        1.2325998337
 H        -5.9622884718       -2.4468337925        1.0004649552
 H        -8.7750591641       -0.0884871070        1.7123023066
 H        -7.4977153057       -1.2644741758        2.4903271564
 H        -9.1028151516       -1.8057170174        2.2070962826
 H        -5.3735617736        0.4796980358       -6.4964972096
 H        -6.5763447737       -0.3573409477       -5.6108930806
 H        -4.9160506536       -0.8329452027       -5.4586175827
 H        -3.4334061977        0.9545763399       -3.8645651149
 H        -4.1387857804        2.5938273886       -3.5564572280
 H        -3.7881449096        2.2469027724       -5.1923080536
 H       -11.8875173378        3.8403199632       -3.6325221133
 H       -11.4280227386        4.8235784627       -2.1976344660
 H       -11.2802869249        3.0509673111       -2.1480796083
 H       -10.3047631435        5.6249987961       -4.9847920186
 H        -8.6228489539        5.8142884902       -4.4451728803
 H        -9.9517657487        6.3124850943       -3.4494297042
 H        -6.6267730641        8.3820570502        3.3866777961
 H        -8.2116947176        8.5266841664        2.3569749911
 H        -6.6774795643        8.6336468917        1.5867284103
 H        -5.2443069429        6.2915523757        1.4062832046
 H        -5.9257762729        4.8887615208        2.3544549788
 H        -5.2214314319        6.3265963440        3.1574168240
 H       -13.3357284615        7.6127654982        7.1010685293
 H       -14.5681743495        6.3255225563        6.9249736256
 H       -14.2925642765        7.5361772326        5.6574092824
 H       -13.3789534140        4.4041845683        7.0870829929
 H       -11.9370759693        5.1972854020        7.4833279929
 H       -11.9222920286        3.9420864818        6.2534082131
 H       -13.0733300166        6.1041652623       -1.0415132788
 H       -13.7160057911        7.7092553002       -0.8719956910
 H       -14.1869276452        6.7679372322       -2.2588083614
 H       -16.3361516562        7.9254656825       -0.7373784951
 H       -17.4080516675        6.5523208201       -0.3061156394
 H       -16.5935244856        6.6806110785       -1.9401218083
 Na       -9.0521325981        1.0862494231       -1.8472960721
