117

 C       -16.5247163456        3.9737563038        0.1730065270
 C       -15.3825656887        4.7176437293       -0.5145790129
 O       -14.4068296545        4.0264824340       -0.9093565776
 C       -15.3267742351        6.2121522259       -0.4065690216
 C       -15.0158659400        6.6124602541        1.1207142682
 O       -15.5534745420        7.5451103513        1.6414860416
 C       -13.9391124484        5.8318406788        1.8715875054
 C       -14.0312181860        6.1654324900        3.3543569971
 C       -13.4426185572        5.1362454166        4.3452721039
 O       -13.6865590597        3.9447969325        4.2228028576
 C       -12.7454039789        5.7505796231        5.6126371823
 C       -11.4454824794        6.5387923439        5.1479577209
 O       -11.5378755646        7.7428070084        5.2213903347
 C       -10.2733022784        5.7918571869        4.5822527667
 C        -9.4510864762        6.6341938132        3.6664078571
 C        -8.1807697809        5.9246506321        3.2048561040
 O        -7.9288481696        4.7908207236        3.5971684458
 C        -7.1982230316        6.6576060057        2.1962015249
 C        -7.7805737865        6.5344482627        0.7619119707
 O        -8.6958034239        7.2353898739        0.4095797911
 C        -7.2223628686        5.3933728125       -0.1509681791
 C        -8.0340124847        5.4819175794       -1.5016656480
 C        -8.7903652254        4.2117099386       -1.9309849089
 O        -8.6999220665        3.3070015090       -1.1494063500
 C        -9.7385505581        4.2508189244       -3.3154020747
 C        -9.2080457780        3.1099173443       -4.3198440032
 O        -9.3606282937        1.9579701733       -3.8989766425
 C        -8.6819244179        3.2842429118       -5.7215633111
 C        -7.5927587677        2.2502993750       -5.8470496484
 C        -6.6198573289        2.3813734825       -4.7009824616
 O        -6.6866745879        3.3665240899       -3.9533575390
 C        -5.5670314957        1.2221865728       -4.3340561248
 C        -6.0810139172        0.4052692005       -3.0831814075
 O        -7.0872883382       -0.2541553940       -3.0631300402
 C        -5.2070548474        0.4985095323       -1.7659027456
 C        -5.6046229168       -0.6321593175       -0.8433173624
 C        -7.0112994083       -0.3876639752       -0.1944882500
 O        -7.5282417664        0.6903198100        0.0157998434
 C        -7.7124997879       -1.6572493781        0.2638801404
 C        -8.9718111601       -1.8157928426       -0.6173219006
 O        -9.5369466517       -0.9463900199       -1.2701741846
 C        -9.5819722095       -3.2192593109       -0.7324517838
 C        -6.8684042514       -2.9396328472        0.3370370481
 C        -8.2885020239       -1.3870826327        1.7531086134
 C        -5.4430028575        0.2309190661       -5.4742693749
 C        -4.1706131898        1.8740791435       -4.0525645703
 C       -11.1575265361        3.7366807742       -2.9343592151
 C        -9.7863435467        5.6396980237       -4.0278158424
 C        -7.0965163611        8.1667072548        2.5557566985
 C        -5.7454068025        5.9699623347        2.2647961780
 C       -13.6743552439        6.8161302752        6.2395369449
 C       -12.4779994322        4.5295132110        6.5672103346
 C       -14.1813811595        6.7560629562       -1.3114082976
 C       -16.6134427093        6.8961844336       -0.7906033601
 H       -16.9218658995        4.6179972194        1.0085491336
 H       -16.2029156038        3.1386402901        0.7300286978
 H       -17.3141443022        3.7817370817       -0.6070704700
 H       -12.9015985312        6.0487662522        1.5486322562
 H       -14.1084301059        4.7778790067        1.7472992267
 H       -15.1378438815        6.2171013536        3.6564582030
 H       -13.5960786950        7.0779687910        3.6277732664
 H       -10.6314153212        4.9589052656        4.0020035066
 H        -9.7921690852        5.2924306983        5.4411986683
 H        -9.1449102790        7.5250219835        4.1792344158
 H       -10.0764470847        6.8794234809        2.8007254159
 H        -7.4323206717        4.4690988379        0.4583139761
 H        -6.2202593992        5.5458772127       -0.4043574351
 H        -7.3710364742        5.7808962055       -2.3303412487
 H        -8.7649572491        6.3124220795       -1.3879458335
 H        -8.3907303763        4.3359793528       -5.8243168760
 H        -9.5031583410        3.1289566547       -6.4198155861
 H        -7.0711326226        2.3188479723       -6.7565414030
 H        -8.0473027090        1.1796202155       -5.7554502040
 H        -5.3928645761        1.4625249428       -1.2731615207
 H        -4.1532941930        0.4246593144       -2.1384091972
 H        -4.7897376176       -0.8502523752       -0.1355183065
 H        -5.6545742492       -1.5773150226       -1.4162196145
 H        -9.4099158462       -3.7700142776        0.2102315199
 H        -9.0313908356       -3.7857872482       -1.4370506744
 H       -10.6478047806       -3.2451712173       -0.9294095521
 H        -6.6846163751       -3.3688715445       -0.7085698199
 H        -7.4121354971       -3.7345801512        0.9337371771
 H        -5.9283886433       -2.7460051832        0.8688322086
 H        -8.9557271061       -0.6130888897        1.6797905873
 H        -7.4700017368       -1.0934935123        2.3906653903
 H        -8.8420744208       -2.2300197670        2.2115596499
 H        -5.4041897308        0.5303085323       -6.4860866371
 H        -6.1765699551       -0.5662455752       -5.5060323426
 H        -4.4985393157       -0.2834656102       -5.4012211673
 H        -3.3658546697        1.2377591043       -3.9260151321
 H        -4.2892586496        2.5655395162       -3.1706366744
 H        -3.9023588716        2.5700015912       -4.8684631031
 H       -11.7593076974        3.4612133058       -3.8278541486
 H       -11.6911812621        4.4899731600       -2.3555587418
 H       -10.9599018380        2.8413252180       -2.3300911552
 H       -10.3490760474        5.6445905262       -4.9415662488
 H        -8.7720859163        5.9821497339       -4.2576286598
 H       -10.2748443386        6.4186159469       -3.4042391700
 H        -6.8244233529        8.1442916633        3.6415457883
 H        -8.0412797117        8.6248003430        2.3249137773
 H        -6.3396222486        8.6787336339        1.9693283248
 H        -4.9552555912        6.4695028437        1.6659864914
 H        -5.7572601263        4.8701276829        2.1517497586
 H        -5.4027982661        6.1833034788        3.2985804587
 H       -13.3261875840        7.0615884854        7.2393032367
 H       -14.6698540845        6.2657679602        6.3124114183
 H       -13.7648847429        7.7810587164        5.7205585979
 H       -13.4649034299        4.0938460087        6.7666766146
 H       -12.0771429769        4.7952114980        7.5899959699
 H       -11.7868760093        3.7816327492        6.2094821474
 H       -13.1570708645        6.4909426665       -1.0558770373
 H       -14.1928917957        7.8560842948       -1.3298666552
 H       -14.3467930835        6.4468786713       -2.3351164661
 H       -16.7537057773        7.8689634939       -0.2070603872
 H       -17.4591648579        6.3618930669       -0.5334346874
 H       -16.5952768818        7.0137279677       -1.8407700966
 Na       -8.8684147471        1.0820935800       -1.8085583018
