117

 C       -16.4737091045        3.8371241698       -0.0715456541
 C       -15.2729710591        4.5874892202       -0.5223471815
 O       -14.2813909680        4.0272021008       -1.0536493959
 C       -15.1868852557        6.2420751260       -0.4133948467
 C       -15.0894932555        6.6060566603        1.1598698353
 O       -15.6619623789        7.5789461214        1.5549996394
 C       -14.0609802726        5.8609585082        1.9830852731
 C       -13.7751828357        6.5383185315        3.3030287066
 C       -13.2989696807        5.4798343981        4.3640563891
 O       -13.2993090300        4.2887999134        4.1367859352
 C       -12.7470442641        5.9800168709        5.7500101579
 C       -11.4662849269        6.7059030667        5.3550512173
 O       -11.5110265454        7.9239942529        5.1395724300
 C       -10.2962402459        5.8512246332        4.9761576128
 C        -9.4007246328        6.5906676857        3.8894714640
 C        -8.2057687690        5.8902746075        3.2532270579
 O        -7.8475286720        4.7536724679        3.5397959476
 C        -7.3322744655        6.6418269247        2.0816175818
 C        -7.9564386947        6.5153481127        0.7209685787
 O        -8.9367548788        7.1401984067        0.3718082834
 C        -7.3673272779        5.5039142672       -0.3185145883
 C        -8.0153988426        5.5543930557       -1.6865116074
 C        -8.8946083482        4.2604015616       -1.9886214091
 O        -8.8685490535        3.3356195035       -1.1979851060
 C        -9.8250871385        4.2729336942       -3.3261137898
 C        -9.3979294523        2.9930460796       -4.2437749531
 O        -9.5236095554        1.8753875048       -3.8919404205
 C        -8.5677042509        3.2958857570       -5.6110833605
 C        -7.3986552112        2.3327772270       -5.8355209879
 C        -6.4849377273        2.3068218505       -4.6505879642
 O        -6.5436610597        3.2288402533       -3.8773437404
 C        -5.4781258881        1.0296828019       -4.4242990313
 C        -6.0118879146        0.3751323681       -3.0451640837
 O        -7.2217617333        0.0989462506       -3.0884003496
 C        -5.1177035286        0.2178969902       -1.8429291917
 C        -5.5734694105       -0.8256256076       -0.8369334120
 C        -6.9210177435       -0.5706354729       -0.2273059411
 O        -7.3896667138        0.5361143653       -0.2737526867
 C        -7.7766764437       -1.6567047146        0.4539754489
 C        -9.0104697990       -2.0833386785       -0.5207714518
 O        -9.6970640153       -1.2337233266       -1.1010019051
 C        -9.4106116269       -3.5254565891       -0.5228716763
 C        -6.9145262627       -2.9198885716        0.7472596396
 C        -8.4562714351       -1.0241598798        1.7011731795
 C        -5.5707722382        0.0292711873       -5.4868921540
 C        -3.9678494035        1.5820527128       -4.4253039222
 C       -11.2584686057        3.9728127082       -2.8060031813
 C        -9.6756448476        5.5187323669       -4.2036924613
 C        -7.2176122452        8.1648934707        2.4990224343
 C        -5.8682458453        5.9768993995        2.1830117244
 C       -13.8432285631        6.9569821943        6.3893124711
 C       -12.4391828116        4.7875739134        6.7210138752
 C       -13.9291456157        6.7707134754       -1.1453655444
 C       -16.4559655531        6.9264434411       -1.0908610349
 H       -17.2842355355        4.5494720762        0.0548239810
 H       -16.2427384449        3.3217839858        0.8775958099
 H       -16.6879877123        3.1218808898       -0.8565005262
 H       -13.1268056229        5.7906176875        1.3897282018
 H       -14.3536765751        4.8149670367        2.1614657971
 H       -14.6983244081        7.0040107806        3.7200784289
 H       -13.0276480422        7.3133452095        3.2435027396
 H       -10.7376832674        4.8792661307        4.6097573985
 H        -9.6842249850        5.6499424913        5.8301963544
 H        -9.0502528177        7.4876700566        4.5009513207
 H        -9.9166107967        6.9952007035        2.9969074472
 H        -7.6003122945        4.5014497354        0.0710930653
 H        -6.2881692188        5.6260607471       -0.3837157668
 H        -7.3332118119        5.7026049636       -2.4659072539
 H        -8.8277710876        6.3725749841       -1.6364019404
 H        -8.1057995405        4.2601400372       -5.5382963169
 H        -9.2641492603        3.3018505257       -6.4580476631
 H        -6.8470976303        2.7897250181       -6.5925934305
 H        -7.7161877775        1.3144081001       -6.2080769386
 H        -5.1385055978        1.2385174914       -1.4701378785
 H        -4.2028507668       -0.0224440308       -2.2676010214
 H        -4.8555880485       -1.0106396499       -0.0367779297
 H        -5.5839310656       -1.8028583690       -1.4466063374
 H       -10.0573608127       -3.8617440953        0.3363711107
 H        -8.6232375825       -4.1948984694       -0.6415905607
 H       -10.1343634374       -3.5761720484       -1.3918894697
 H        -6.3945717633       -3.2600886446       -0.1245915976
 H        -7.5444019712       -3.6451842791        1.2282234678
 H        -6.1687131806       -2.6319937281        1.4315239776
 H        -8.7598772057       -0.0478485127        1.3891300397
 H        -7.7888246986       -1.0156695999        2.6409930512
 H        -9.3083141855       -1.6133951170        2.0614781329
 H        -5.1160515103        0.3797187895       -6.4546180679
 H        -6.5935064065       -0.2948137197       -5.8114340861
 H        -5.0504057391       -0.9362205138       -5.3071769721
 H        -3.2528013272        0.8201242880       -4.2187481687
 H        -3.8734113093        2.3224123604       -3.6037902119
 H        -3.7490790985        2.1498404270       -5.3238160642
 H       -11.8970338676        4.0909795294       -3.6933999607
 H       -11.5178482470        4.6631830642       -2.0125737376
 H       -11.3229629465        3.0006438643       -2.4101908525
 H       -10.0873381125        5.2571010096       -5.1829151813
 H        -8.6087736353        5.7613423945       -4.3696687161
 H       -10.1338612456        6.4235910158       -3.9228524814
 H        -6.7551728470        8.2527498178        3.5018337000
 H        -8.1854871718        8.5969718133        2.3753880769
 H        -6.6010745663        8.6009311003        1.7934530392
 H        -5.3127798345        6.3406484250        1.3172324075
 H        -5.9204711314        4.9025289426        2.1552281904
 H        -5.3519626391        6.2056178361        3.0616708628
 H       -13.2623698329        7.5975685835        7.0915899387
 H       -14.5533106622        6.4280733670        6.9882619896
 H       -14.2520318530        7.6341105420        5.7076416092
 H       -13.3329616525        4.3152345855        7.1090994832
 H       -11.8151517511        5.0551893412        7.5782240590
 H       -12.0014701116        3.9567074834        6.1804365485
 H       -13.0637246122        6.0414202901       -0.9450329018
 H       -13.5555244887        7.7493821622       -0.8554217987
 H       -14.0761448583        6.7603345461       -2.2143939476
 H       -16.1476317735        8.0410403531       -1.3164107524
 H       -17.3351893828        6.8908566124       -0.4536874331
 H       -16.6963993138        6.4804568887       -2.0440870826
 Na       -9.1683992630        0.9388934702       -1.7662283991
