117

 C       -16.5729397737        3.9397770924        0.2482475844
 C       -15.3979395969        4.6519411069       -0.3815026357
 O       -14.4735166354        4.0744898917       -0.9207005035
 C       -15.3851876523        6.2647485405       -0.4061753573
 C       -14.9750448159        6.6677516060        1.0824838596
 O       -15.5710516592        7.5533013850        1.6174076428
 C       -13.9619874941        5.8092063547        1.8693465195
 C       -14.0696660034        6.0853289629        3.3371003166
 C       -13.4931970651        5.0834729308        4.3918209744
 O       -13.6757721127        3.8929772255        4.2856031382
 C       -12.8047784255        5.6609713972        5.6337941933
 C       -11.4605166176        6.4814429413        5.1617014310
 O       -11.4493880212        7.7175238614        5.1765043331
 C       -10.3672398746        5.7051496907        4.4197530679
 C        -9.4563552613        6.6399323544        3.5720275005
 C        -8.1690266036        5.9444963603        3.1685338244
 O        -7.8740332679        4.8205501852        3.5130458689
 C        -7.1220873330        6.7015411236        2.2475692091
 C        -7.7296940357        6.5104534783        0.8120657531
 O        -8.6582028443        7.1770494528        0.4315432838
 C        -7.3713029496        5.3313860384       -0.2332910903
 C        -8.0438482535        5.5542274425       -1.5472780330
 C        -8.8498977096        4.3095997660       -1.9203470323
 O        -8.6941852417        3.2416030397       -1.3090461446
 C        -9.6821052587        4.2336133772       -3.1506650005
 C        -9.1810451662        3.1181482950       -4.1627297389
 O        -9.3150841156        1.9872693786       -3.8381633030
 C        -8.6782669908        3.3593526360       -5.6540268770
 C        -7.6185188993        2.2292285045       -5.8850527736
 C        -6.6208230864        2.4395107260       -4.7405787363
 O        -6.7698314905        3.3238324432       -3.9767056395
 C        -5.4958317322        1.3064787924       -4.3568517732
 C        -6.0088813830        0.5233355201       -2.9942475737
 O        -6.9901072247       -0.2224771211       -3.1721366276
 C        -5.2584075690        0.5606249981       -1.7030720408
 C        -5.6285647637       -0.5537704994       -0.7248968178
 C        -6.9936433749       -0.4908394774       -0.1087732219
 O        -7.4206272360        0.6327298808        0.0543459315
 C        -7.7915993298       -1.7225892171        0.2985332412
 C        -8.9982456465       -1.8194733550       -0.6136924684
 O        -9.4412320888       -0.8477703326       -1.2391936319
 C        -9.7019765587       -3.2203850784       -0.7553160356
 C        -6.8652571127       -2.9424143896        0.1989094510
 C        -8.3664210741       -1.4313587695        1.7430679990
 C        -5.3689319795        0.3000300279       -5.5122102372
 C        -4.1649478336        2.0078516702       -4.1610424796
 C       -11.1571737443        3.7572680535       -2.8113624398
 C        -9.7504976423        5.5945143634       -3.9422520371
 C        -7.0320215142        8.1871121954        2.6475263131
 C        -5.7614171903        5.9582405597        2.2893718187
 C       -13.7489594892        6.6383222178        6.2998644289
 C       -12.3609428683        4.4942780936        6.5196500857
 C       -14.2426193544        6.8382459090       -1.3475428641
 C       -16.7041157595        6.8983110543       -0.9062627884
 H       -16.7047325822        4.2901188037        1.2316382638
 H       -16.3840275764        2.8204860716        0.4934375897
 H       -17.4143269652        4.1598558939       -0.3952469118
 H       -12.9315087221        6.0770381206        1.5676799512
 H       -14.1206449048        4.7466309472        1.6657372572
 H       -15.1764295290        6.1486059364        3.5463826032
 H       -13.6339172760        7.0515431705        3.6280768310
 H       -10.7687660686        4.8382621305        3.8482774390
 H        -9.8332325506        5.1978738001        5.1796946540
 H        -9.1403532035        7.5034883489        4.2254892273
 H        -9.9337450600        6.9933921937        2.6533403497
 H        -7.7020907672        4.3980815130        0.1757598339
 H        -6.3355259904        5.3600362234       -0.5124568815
 H        -7.3753309850        5.7646497424       -2.3496185691
 H        -8.7664820931        6.4691955199       -1.4455371792
 H        -8.3386052423        4.3548134267       -5.8575749926
 H        -9.5491345791        3.2601910805       -6.3210237105
 H        -7.0659281707        2.4132709107       -6.7818017569
 H        -7.9785754040        1.1732845158       -5.8996159435
 H        -5.6219675166        1.5002209560       -1.2326035257
 H        -4.2483287881        0.6434883509       -1.9315558889
 H        -4.8637029068       -0.4528299549        0.0685333226
 H        -5.3807426970       -1.6136381704       -1.1064289959
 H        -9.4677942571       -3.9116213764        0.0658462377
 H        -9.3552417408       -3.7229714927       -1.6086251104
 H       -10.8387900604       -3.1301256618       -0.8123710595
 H        -6.6110925500       -3.0345886356       -0.8371323097
 H        -7.3325212841       -3.9162730992        0.4603951063
 H        -5.9969942569       -2.8274380316        0.8558674258
 H        -9.0456412615       -0.5964659864        1.6906347486
 H        -7.5108142148       -1.1598170667        2.4266741910
 H        -8.9440349968       -2.2029222951        2.1021325964
 H        -5.0768191654        0.7235758874       -6.4899403685
 H        -6.1732297850       -0.3685219394       -5.7944968197
 H        -4.5110384844       -0.3754945553       -5.4018179273
 H        -3.2475656544        1.3583585859       -4.1252431708
 H        -4.2643625411        2.5541889745       -3.2574610610
 H        -3.9028810928        2.7232976755       -4.9029653070
 H       -11.7733122075        3.7568156831       -3.7313543581
 H       -11.5800935654        4.5371044074       -2.1651705644
 H       -11.1384246549        2.7996000162       -2.3679143390
 H       -10.3170760954        5.5581580869       -4.8862381697
 H        -8.7542145749        6.0242074653       -4.1549305116
 H       -10.2757892569        6.2827935360       -3.3745815458
 H        -6.9581463283        8.1165637937        3.7285388565
 H        -7.9159551767        8.6954041423        2.2910651420
 H        -6.1847113205        8.6545311426        2.2834528666
 H        -4.9607400467        6.4387194169        1.7409406019
 H        -5.9099267849        4.9292687416        1.9881002325
 H        -5.4183954026        5.9780979136        3.2624671584
 H       -13.3236244540        6.7694214382        7.3474924477
 H       -14.7839850204        6.3306033418        6.2806212334
 H       -13.6224512994        7.6184415293        5.8823934425
 H       -13.2718930408        3.9095426207        6.7331091620
 H       -11.9498495361        4.7605842954        7.4958001583
 H       -11.5573416825        3.8793484653        6.0797647850
 H       -13.1562490432        6.6181706955       -1.0096056712
 H       -14.2655030325        7.8939425547       -1.4760233793
 H       -14.3087799724        6.4196625977       -2.3448786307
 H       -16.8858462676        7.8777298886       -0.4425877787
 H       -17.5791306683        6.3583564140       -0.5287595412
 H       -16.6968441812        6.8751536538       -1.9742337695
 Na       -8.8113138828        1.0757113760       -1.8183332239
