117

 C       -16.1169457796        4.0240657433       -0.6443906877
 C       -14.7237530637        4.8240184499       -0.7418787883
 O       -13.7879015644        4.1943075530       -0.9870861602
 C       -14.7078657842        6.4155559690       -0.4672049145
 C       -15.1568054504        6.5103038424        0.9952913341
 O       -16.1545005626        7.1165729746        1.3332221161
 C       -14.0880050370        5.9011631896        1.9924560743
 C       -14.3406084377        6.3485117107        3.4496813560
 C       -13.2364367602        5.8746337671        4.3432652016
 O       -12.6390114590        4.8490373439        4.0352503346
 C       -12.7353735887        6.6224612346        5.7044002434
 C       -11.2810605367        7.2211171236        5.3290967355
 O       -11.0589386064        8.4293970573        5.5551829315
 C       -10.2188533589        6.2908005267        4.8571266830
 C        -9.1179953702        7.0360044449        4.0930869646
 C        -8.1911433321        6.1181344674        3.3971741630
 O        -7.7370067118        5.0942086223        3.8276004642
 C        -7.4630767540        6.6360113554        2.0677253308
 C        -8.2307482889        6.3874950679        0.7630134068
 O        -9.3124774374        6.9370787599        0.5688616387
 C        -7.6783010425        5.4717931192       -0.3913599857
 C        -8.7132265597        5.4205168231       -1.5421836193
 C        -9.2106250580        4.0001881628       -1.9209772616
 O        -8.8940750912        3.0951119845       -1.1744894435
 C       -10.1043969460        3.9036419154       -3.3020159275
 C        -9.3331575911        2.8402864447       -4.1398212158
 O        -9.6203657785        1.6461248659       -3.8769856394
 C        -8.3699998669        3.0992931132       -5.3712287851
 C        -7.5235042117        1.8287475828       -5.6097968421
 C        -6.2250072066        1.9413814473       -4.7260603718
 O        -5.8220953397        2.9708008714       -4.2505362094
 C        -5.4690752908        0.5689293025       -4.5862096956
 C        -6.1966621390       -0.0980432001       -3.4462614802
 O        -7.3713524317       -0.2968861608       -3.4098409731
 C        -5.2326683718       -0.5928868864       -2.2169858340
 C        -6.1144326770       -1.4065478209       -1.1996681315
 C        -6.9218929936       -0.6074137665       -0.1657151550
 O        -7.0245862596        0.6210494296       -0.3329000357
 C        -8.0565324589       -1.2385803162        0.7757789023
 C        -9.0851432570       -1.9876669224       -0.2157107827
 O        -9.6977360005       -1.3677240106       -1.0705707789
 C        -9.3639023365       -3.4816111108       -0.1058869049
 C        -7.4946352461       -2.3107834289        1.7751593066
 C        -8.8072417446       -0.1850326024        1.5295916002
 C        -5.5346123686       -0.2465731387       -5.9504697219
 C        -4.0262154822        0.8896225040       -4.2404580781
 C       -11.4062874784        3.2133829155       -2.8587468217
 C       -10.2643653433        5.2563028024       -4.0297825435
 C        -7.0995324578        8.2039350086        2.1517856148
 C        -6.1108592487        5.8313184289        1.9828085592
 C       -13.7814654458        7.7032326576        6.2460042282
 C       -12.5486760226        5.6021726493        6.8328850708
 C       -13.3048444160        7.0072404493       -0.7424007729
 C       -15.8354433483        7.1239302833       -1.3135584867
 H       -16.1892713260        3.2716867435       -1.3623675595
 H       -16.9739555083        4.7698190763       -0.6000556081
 H       -16.1472516971        3.6358724127        0.3377445501
 H       -13.0690842349        6.2070250163        1.6410268915
 H       -14.1165565100        4.8283825441        1.9266701295
 H       -15.2695324391        5.9060809901        3.8870032891
 H       -14.4664522012        7.3953340707        3.5125502457
 H       -10.7251795169        5.5735489408        4.2538073415
 H        -9.8362053607        5.7298678355        5.7600614830
 H        -8.4497252913        7.6836734549        4.6695061188
 H        -9.6057946180        7.7152298443        3.3338115093
 H        -7.5330045742        4.4901512177        0.1323158897
 H        -6.6761437109        5.6696117804       -0.6705702930
 H        -8.2214413198        5.8097993801       -2.4540111033
 H        -9.5838380054        5.9330172380       -1.1869663620
 H        -7.6233572065        3.8921065514       -5.0620392082
 H        -8.9596773986        3.3865665728       -6.2148505501
 H        -7.3196648857        1.7519706192       -6.6890487372
 H        -8.0525116891        0.9493749574       -5.3645814130
 H        -4.7218307282        0.1994314330       -1.7857903015
 H        -4.4724985000       -1.2759165626       -2.6415056144
 H        -5.4239400857       -2.0758128703       -0.6051455857
 H        -6.7697360727       -2.0158408436       -1.7828671041
 H       -10.0160230753       -3.6670580057        0.6831515246
 H        -8.4076903157       -4.0259479511        0.0592101294
 H        -9.7164341650       -3.9175161723       -1.0492626213
 H        -7.0187581885       -3.1556373265        1.2704353293
 H        -8.3245081312       -2.7143573800        2.3356221264
 H        -6.9210426786       -1.6878362769        2.4735152017
 H        -9.3293112070        0.6305707777        0.9063257663
 H        -8.0525889084        0.3297228434        2.1806621499
 H        -9.5950458066       -0.7053359284        2.0365554455
 H        -5.4094643241        0.2772862985       -6.9286321780
 H        -6.5125430440       -0.7367640824       -5.9446455714
 H        -4.7375236496       -0.9968394079       -5.8918344572
 H        -3.5392187979       -0.1224775733       -4.0273664206
 H        -3.9589611391        1.4759727616       -3.3713805819
 H        -3.5448059645        1.2563107361       -5.1563508982
 H       -12.1280027441        3.0563647579       -3.6363090046
 H       -11.8929842668        3.8951530193       -2.1688893477
 H       -11.0925028416        2.2502924004       -2.3842859341
 H       -10.9439069442        5.2228793546       -4.8719673639
 H        -9.3534371976        5.6457768989       -4.4378219026
 H       -10.7204181630        5.9787978666       -3.2985942437
 H        -6.6483634039        8.3080249719        3.1241622517
 H        -8.0478960121        8.7936837178        2.1199577250
 H        -6.4438409735        8.5224724131        1.2512399424
 H        -5.4288962874        6.2199530821        1.1965683270
 H        -6.4726220943        4.8368212071        1.6808365320
 H        -5.4683737458        5.9287213405        2.9160812491
 H       -13.2217124580        8.1755147341        7.0325121205
 H       -14.7509700458        7.3460454850        6.6346144656
 H       -14.0491557157        8.5281566597        5.5250759135
 H       -13.4876519365        5.1888169270        7.1707289561
 H       -12.1081599584        6.0481585068        7.6979097037
 H       -11.7934049026        4.8707441407        6.5644965007
 H       -12.6366074418        6.2123286749       -0.6519492501
 H       -13.0495031810        7.8090837992       -0.0289244478
 H       -13.2945012398        7.3221289642       -1.8089753718
 H       -15.7915332756        8.1339373257       -1.1834248707
 H       -16.8736134808        6.8958955210       -0.9590752704
 H       -15.7207313793        6.8119483583       -2.3787365699
 Na       -9.0158201624        0.8724419169       -1.8619247653
