117

 C       -16.3389949157        3.9968192979       -0.2390836756
 C       -15.0527676073        4.7046441834       -0.6331374653
 O       -14.1263655768        4.0425593121       -1.0854036668
 C       -15.0091155673        6.2333850678       -0.4775630418
 C       -15.0618883615        6.6705787452        1.0933976225
 O       -15.9332345621        7.4014100519        1.4673386009
 C       -14.2222170637        5.7893884386        2.0261415186
 C       -13.9160206383        6.5557863187        3.3534884392
 C       -13.2531548049        5.6185289984        4.3529621873
 O       -13.0360265519        4.4704674065        4.0149844565
 C       -12.6100774235        6.1798943900        5.6793028686
 C       -11.3173564435        6.8865006539        5.3521408619
 O       -11.2291753932        8.1389076742        5.2905193794
 C       -10.2113495707        6.0244542505        4.8402508177
 C        -9.3750729552        6.7734109399        3.8231378209
 C        -8.2948391705        5.9971646013        3.2055232666
 O        -8.2078882133        4.7890162134        3.4429791560
 C        -7.3342171145        6.6017827914        2.1388348466
 C        -8.1446202139        6.4000934174        0.8157957997
 O        -9.2560490474        6.8692529618        0.6992460343
 C        -7.5955696359        5.3737717181       -0.2140084790
 C        -8.2809741829        5.4907101857       -1.6637515800
 C        -9.0033643820        4.2269665817       -2.0847161103
 O        -8.8112924678        3.2202005518       -1.4545248355
 C        -9.9984248778        4.2433996573       -3.3459009711
 C        -9.3505181576        3.1631505833       -4.2302927903
 O        -9.4722256781        2.0545020505       -3.8412205073
 C        -8.4173253243        3.3498581524       -5.5447580331
 C        -7.5649902132        2.1031994537       -5.6248264442
 C        -6.4066540144        2.1725859578       -4.5232720145
 O        -6.1372119155        3.1431855021       -3.9022898534
 C        -5.4316594117        0.8729270735       -4.4322580180
 C        -6.0228564537        0.2850408701       -3.0994727736
 O        -7.2662428649        0.1767736982       -3.1020433691
 C        -5.1295025687       -0.0932147318       -1.9059973892
 C        -5.6881209549       -1.2093505394       -1.0028033283
 C        -6.9400947681       -0.6557861238       -0.1943798846
 O        -7.2491063923        0.5208519245       -0.3375007478
 C        -7.8846724475       -1.6401074644        0.6211482532
 C        -8.9864959378       -2.1504069647       -0.4087396388
 O        -9.6594669672       -1.4292573497       -1.1634060795
 C        -9.3462288955       -3.6928620300       -0.4037177042
 C        -6.9124823563       -2.7524244237        1.2227745330
 C        -8.6145452891       -0.7584205887        1.6960287840
 C        -5.6988722014       -0.1279735918       -5.5927094335
 C        -3.9848629542        1.3793633019       -4.4780226154
 C       -11.4343609451        3.8861666417       -2.8894775115
 C        -9.7928547521        5.6221172096       -3.9423491023
 C        -7.3115380431        8.1841491816        2.1829270195
 C        -5.9175499424        6.0019303435        2.1391678157
 C       -13.5616730988        7.2484481627        6.4049052286
 C       -12.3041848019        5.0111215996        6.6654348056
 C       -13.6956922154        6.7553335709       -1.1010861128
 C       -16.1932237905        6.8714641428       -1.2073425430
 H       -17.0384641782        4.6358902578       -0.6654485878
 H       -16.3991429321        3.9916462812        0.9228367383
 H       -16.4740290246        2.9921225840       -0.5651663850
 H       -13.3545030990        5.4402328308        1.5086620187
 H       -14.8444556109        4.8794927143        2.1474902401
 H       -14.8167449335        6.9363099659        3.7145674190
 H       -13.2572157330        7.4618823163        3.1844607069
 H       -10.6136841718        5.0757446129        4.3729803145
 H        -9.6003897306        5.8636082343        5.7161043791
 H        -8.8641529640        7.6032021861        4.3056828985
 H        -9.9458602150        7.2487539289        3.0680235216
 H        -7.6733377866        4.4145445112        0.2941310620
 H        -6.4477915598        5.5284320593       -0.2322736547
 H        -7.5330482445        5.7128577219       -2.4035701535
 H        -9.0924876824        6.1872191010       -1.6220475556
 H        -7.7135669224        4.1673063199       -5.4386908233
 H        -9.0539285088        3.3981215282       -6.4768427380
 H        -7.0379054570        2.2217883496       -6.6234882299
 H        -8.1631425521        1.1941442893       -5.6227526659
 H        -5.0755013615        0.8428923994       -1.2351925943
 H        -4.1597742108       -0.4033079152       -2.3074756302
 H        -4.8796585346       -1.4731084293       -0.3997209121
 H        -5.9985806552       -2.0747400570       -1.5549603005
 H        -9.4594209194       -4.0837846072        0.5841865663
 H        -8.5816909663       -4.2201397503       -0.8461419864
 H       -10.3421575920       -3.9486818784       -0.8668235024
 H        -6.4986748014       -3.2557409217        0.3562376749
 H        -7.4895890888       -3.3931955473        1.9351402163
 H        -6.0441239626       -2.2242073530        1.7087118695
 H        -9.3009892979       -0.1049755877        1.1967530680
 H        -7.8466006177       -0.1095961068        2.2850606542
 H        -9.0595565395       -1.3833256976        2.4122159262
 H        -5.7501716731        0.4478257841       -6.5169082123
 H        -6.5981656189       -0.7168994982       -5.5749470427
 H        -4.9317698542       -0.8685456203       -5.7353670627
 H        -3.3944423770        0.5502088615       -3.9973052549
 H        -3.9503332360        2.1142986387       -3.6837285729
 H        -3.6161319714        1.7689662066       -5.4418206916
 H       -12.1064002621        3.7465477066       -3.7563519909
 H       -11.7226338527        4.7425415205       -2.2399627451
 H       -11.3965191854        3.0535818370       -2.2251398813
 H       -10.4319713846        5.9330229772       -4.8038340347
 H        -8.7291352035        5.7318495292       -4.2464657058
 H        -9.8949148300        6.3762005544       -3.2417074237
 H        -6.8244878256        8.3947004230        3.1768301028
 H        -8.3465817800        8.6242132452        2.1614457126
 H        -6.6033390417        8.4972452074        1.4325501248
 H        -5.2824303948        6.5013699475        1.3470821190
 H        -5.9168590666        4.8631295998        2.0634492734
 H        -5.6353085420        6.1223592284        3.1653633084
 H       -13.5993488165        7.1976447938        7.5486855756
 H       -14.6002390132        7.0827141787        6.1392967221
 H       -13.2640803482        8.2251365849        6.0199694905
 H       -13.1483587813        4.3640342004        6.9009267569
 H       -11.9417354070        5.4708933527        7.5620393492
 H       -11.6040427657        4.2227156674        6.3246661902
 H       -12.8186162957        6.6230438182       -0.3921568466
 H       -13.8177592026        7.7985073234       -1.1904281672
 H       -13.4276979911        6.3769931771       -2.0691423328
 H       -15.9220725343        7.9311392603       -1.4330697409
 H       -17.0937839085        6.6802084808       -0.6687091636
 H       -16.3119709715        6.4570743557       -2.1606845496
 Na       -9.3165250195        0.9991086554       -1.7212354537
