117

 C       -16.2106934172        4.0064267544       -0.3894356547
 C       -14.9010631374        4.7067262485       -0.6536322495
 O       -13.9312109431        4.1706497068       -1.0712671654
 C       -14.8670563936        6.3044214642       -0.4721843709
 C       -15.1492129785        6.6211537056        1.0211738127
 O       -16.0863885544        7.2696655988        1.4242437058
 C       -14.1969618465        5.9027256794        1.9901581709
 C       -14.2214167789        6.4164026533        3.3839917021
 C       -13.2204883502        5.6979067558        4.3051918192
 O       -12.7515680915        4.6054353425        4.0173481851
 C       -12.7359962783        6.4238958903        5.6791562883
 C       -11.2971256913        7.1140374261        5.3841129709
 O       -11.1560343758        8.3330356122        5.5847471862
 C       -10.2069733009        6.2651769905        4.7721104368
 C        -9.1704002645        6.9814388845        3.9214597540
 C        -8.2105536263        6.0804693733        3.2277286881
 O        -8.1692263045        4.8777526396        3.4195852034
 C        -7.2869089751        6.7094010144        2.0085286597
 C        -8.1458628690        6.2520486180        0.8579447053
 O        -9.2890525075        6.6781625017        0.8783306523
 C        -7.6505984766        5.4227022785       -0.3597434849
 C        -8.5047419771        5.5010181050       -1.6049758877
 C        -9.1573216057        4.1564316223       -2.0288015429
 O        -9.0048783820        3.1803898887       -1.3638809426
 C       -10.0601106060        4.1380075515       -3.2996143681
 C        -9.4787763393        2.9874267233       -4.1631954890
 O        -9.7159633285        1.8307529590       -3.8206087851
 C        -8.4292949226        3.3776820581       -5.3414198318
 C        -7.3900916233        2.2155600070       -5.7321401408
 C        -6.2587694625        2.1494442790       -4.7476486475
 O        -5.8649198185        3.1510447133       -4.2304081106
 C        -5.5816089165        0.7831501105       -4.4411689468
 C        -6.1873913971        0.0613785953       -3.2183779638
 O        -7.3664433550       -0.1912132812       -3.2563866292
 C        -5.1675204362       -0.5650942931       -2.1472109185
 C        -5.9474149273       -1.3600893023       -1.0860300182
 C        -6.9127306240       -0.5418803420       -0.1678063067
 O        -7.1722903384        0.6675111598       -0.3221791856
 C        -7.9214412931       -1.4396042736        0.7023142989
 C        -9.0003046096       -2.1233802867       -0.3089566502
 O        -9.5863065055       -1.4509121010       -1.1450095420
 C        -9.2219146677       -3.5868207601       -0.2957486662
 C        -7.1091844081       -2.5011846996        1.5571900996
 C        -8.7807695179       -0.5623114953        1.6778519846
 C        -5.7241090317       -0.2271843289       -5.5896565435
 C        -4.1280000709        1.0239365494       -4.0895087591
 C       -11.4661955036        3.7161127015       -2.7793915787
 C        -9.9805446879        5.4448523402       -4.0975442651
 C        -7.1155500327        8.2373827343        2.1039613440
 C        -5.8514546099        5.9827934743        2.0464951263
 C       -13.6925856196        7.4864223996        6.2684734267
 C       -12.5026598035        5.2898058329        6.7122745204
 C       -13.4122016346        6.8244560064       -0.8237319016
 C       -15.9398423064        6.9896540799       -1.3247746656
 H       -16.5752630186        3.7249733654       -1.3324348701
 H       -16.9167340464        4.5658211997        0.3623462113
 H       -15.9417179333        3.1120285810        0.1836374268
 H       -13.2050532047        5.9156166576        1.5412505129
 H       -14.4934065504        4.8396617732        1.9749453493
 H       -15.2382964218        6.3350473864        3.7471179472
 H       -14.0047310074        7.5351598541        3.4173030808
 H       -10.7715923109        5.5529140613        4.2172288772
 H        -9.6637105908        5.7679295523        5.5996141580
 H        -8.6503774502        7.7789583074        4.4408315615
 H        -9.6496342625        7.5595082541        3.0759685103
 H        -7.5856165321        4.4171310508       -0.0120579348
 H        -6.5790710603        5.6195564070       -0.4932547116
 H        -7.8607697270        5.8429191259       -2.5174504041
 H        -9.3643376403        6.1195524948       -1.3683208895
 H        -7.8414452243        4.2269262601       -4.9590593211
 H        -9.0560801728        3.6197760386       -6.1984547424
 H        -6.8642833744        2.5709434164       -6.7192089033
 H        -7.8864155108        1.3304652586       -5.9651289911
 H        -4.5862455583        0.2106472145       -1.6494774178
 H        -4.4965489173       -1.2527213868       -2.7028982993
 H        -5.1154718159       -1.8762075939       -0.4820481627
 H        -6.5890769767       -2.1296476326       -1.5418648786
 H        -9.4747832722       -3.9852804382        0.6667944274
 H        -8.4080341316       -4.1493358683       -0.7742963321
 H       -10.1554576912       -3.7230494794       -0.9452716918
 H        -6.7161115658       -3.1649194562        0.8471698521
 H        -7.7304714781       -3.0712735163        2.2197234439
 H        -6.3440371703       -1.9009995895        2.0788997882
 H        -9.2566810836        0.2866024213        1.1992051590
 H        -8.0379260918       -0.1156811200        2.3820442573
 H        -9.4519214350       -1.1585719089        2.1665130114
 H        -5.1717261467        0.0233106984       -6.5344791127
 H        -6.7747191907       -0.3246460797       -5.9473478987
 H        -5.4497286506       -1.2571107292       -5.2484016429
 H        -3.4271534027        0.1410509595       -4.0781196683
 H        -4.0264260212        1.5677085018       -3.2254864520
 H        -3.8848610911        1.5773883796       -4.9673894471
 H       -12.0700659658        3.6279848348       -3.6619781126
 H       -11.9469120603        4.4341296302       -2.1127920861
 H       -11.3500320086        2.7352505338       -2.3328880102
 H       -10.2651330740        5.3266418490       -5.1562905757
 H        -8.9398392627        5.7441224257       -4.1554401532
 H       -10.5443175363        6.2766223973       -3.7337060056
 H        -6.6590982305        8.4667308058        3.0146649753
 H        -8.0767733555        8.7110709166        2.0194273849
 H        -6.4702268686        8.4795053988        1.2825564604
 H        -5.3958042902        6.1546129434        1.1093005326
 H        -5.9186568357        4.9249301642        2.2313681783
 H        -5.2758295125        6.4658380100        2.7933819592
 H       -13.3932876848        7.7438547161        7.2953154741
 H       -14.6646363144        7.0748063154        6.3364357377
 H       -13.7837069619        8.3643704082        5.6409866671
 H       -13.5357282573        5.0633496185        7.0633550116
 H       -11.9964084293        5.6744610338        7.5774726491
 H       -11.9959181723        4.3206115732        6.4485975076
 H       -12.6630110736        6.1926826779       -0.3094275383
 H       -13.2854115471        7.8700520967       -0.5289019480
 H       -13.2336990890        6.7295847714       -1.9321753965
 H       -16.2255251945        7.9253864230       -0.8528366841
 H       -16.8296506719        6.2997326762       -1.3780490879
 H       -15.5936376075        7.2340856042       -2.3342195589
 Na       -9.0210452910        0.7655336016       -1.8012939189
