117

 C       -15.7600001322        4.4502357159       -1.4261696499
 C       -14.4946671308        5.2065046317       -1.0031003531
 O       -13.4110041515        4.6570289617       -0.9594427394
 C       -14.6278549907        6.6801350545       -0.3912204322
 C       -14.8257150391        6.5725378559        1.1721481068
 O       -15.9045439471        6.8002361988        1.6661963985
 C       -13.6229344350        6.1603133758        2.1166219401
 C       -13.6538341019        7.0202938505        3.3750876582
 C       -13.1100014931        6.1848955471        4.5559193198
 O       -13.0636361553        4.9698357442        4.4901910976
 C       -12.6354356930        7.0127796919        5.7589224073
 C       -11.3068946354        7.7126521570        5.2134186200
 O       -11.4016921469        8.8888854754        4.8234603004
 C       -10.1192276756        6.9212198778        4.9143629254
 C        -9.3940350005        7.3884738177        3.6198024395
 C        -8.3269120901        6.4307829682        3.1447783244
 O        -7.9440603710        5.4786374179        3.7684851597
 C        -7.4562113044        6.7018168717        1.7753214279
 C        -8.3319271459        6.3301627013        0.6212133467
 O        -9.2137362695        7.1213450243        0.2594064994
 C        -8.3890875932        4.8637728641        0.0079478031
 C        -9.5543353317        4.7684240468       -0.9462462492
 C        -9.4939435173        3.5258848998       -1.8710288395
 O        -8.7027844499        2.5720936501       -1.6530210708
 C       -10.2436418871        3.5717594884       -3.2770608773
 C        -9.4447428320        2.5186514677       -4.1946358253
 O        -9.8839120747        1.4029764779       -4.3024938037
 C        -8.1687461712        2.9954918321       -4.8966917602
 C        -7.2314352307        1.8821839318       -5.4176508911
 C        -6.1649733685        1.6533406792       -4.4522724505
 O        -5.7623980418        2.5036201655       -3.7113329638
 C        -5.4985584366        0.1262706851       -4.4594951338
 C        -6.1048550122       -0.6746342473       -3.3008926071
 O        -7.2714648656       -1.0373716159       -3.4085062628
 C        -5.2925595642       -1.1700713646       -2.1196055652
 C        -6.1089697863       -1.7531870527       -0.9449492795
 C        -6.9828887932       -0.7379800267       -0.3017989527
 O        -7.0115013765        0.3693142969       -0.7724533767
 C        -7.9239011256       -1.1924809199        0.8702645472
 C        -9.2479885486       -1.6755141406        0.1761430363
 O        -9.6433474994       -1.1465936898       -0.8750118764
 C       -10.1142252916       -2.6320750479        0.9535005260
 C        -7.3136952786       -2.2043874894        1.7914641961
 C        -8.3619321705        0.1710479778        1.5872183029
 C        -5.7450919188       -0.6518657880       -5.7711108753
 C        -3.9937223248        0.2362026441       -4.3660789288
 C       -11.7272243466        3.1072746176       -2.9113282664
 C       -10.3005661132        4.9025899096       -4.0259160434
 C        -7.0297499492        8.2413710260        1.6931752525
 C        -6.1655203723        5.8837535524        1.9202482094
 C       -13.7247117109        7.9912997150        6.1099478406
 C       -12.2663123189        6.0581957951        6.9611997616
 C       -13.3738944334        7.5528134066       -0.7051351069
 C       -15.8987752174        7.3197697649       -1.0515147227
 H       -15.8466459246        3.5247550413       -0.9057225481
 H       -15.4700268872        4.1022615340       -2.4447586379
 H       -16.6647337698        4.9570711829       -1.3342066285
 H       -12.6995464149        6.2388388766        1.6050497756
 H       -13.7464968278        5.0849724925        2.3863140073
 H       -14.6860716144        7.2805540470        3.5999664220
 H       -13.0982037270        7.9496173598        3.2247221367
 H       -10.4470864947        5.8582364023        4.7922164886
 H        -9.4863899177        6.9511289841        5.7620721727
 H        -8.8956074650        8.4004243571        3.8463944219
 H       -10.0340476731        7.5238806090        2.7380742070
 H        -8.6469729165        4.1498593910        0.7804314001
 H        -7.4287647035        4.7392421215       -0.4824444560
 H        -9.6289979979        5.5701103671       -1.6241003859
 H       -10.5164725211        4.8676056313       -0.3017052648
 H        -7.5840043225        3.6562650674       -4.2887536123
 H        -8.4745831372        3.6591101478       -5.7293928826
 H        -6.7868957973        2.0125275003       -6.3502451208
 H        -7.9091356028        0.9616891713       -5.5581217208
 H        -4.6332618488       -0.3811072022       -1.7836642729
 H        -4.6479959692       -1.9046180865       -2.4757668689
 H        -5.4911123066       -2.2879186839       -0.2505546603
 H        -6.8573015857       -2.5253974240       -1.3451857910
 H       -10.5711399553       -2.0912788450        1.7502287188
 H        -9.6614207770       -3.5275162870        1.4244962066
 H       -10.9351601988       -2.8519458585        0.2940685324
 H        -7.0112567623       -3.1438295735        1.2135371775
 H        -7.9832212333       -2.3723436990        2.6440412906
 H        -6.3918166095       -1.8042579140        2.1785947889
 H        -8.9879270983        0.8293999829        0.8811983585
 H        -7.5037512046        0.7961268353        1.9112621799
 H        -8.8500464975       -0.0158329714        2.5279879966
 H        -5.1743484932       -0.2507671250       -6.5692182800
 H        -6.7853392452       -0.7623151963       -5.9553040042
 H        -5.4426140500       -1.6375330262       -5.4984373271
 H        -3.4454650838       -0.7027524199       -4.4682936264
 H        -3.8240529321        0.7862385967       -3.4355880419
 H        -3.7373515133        0.9414444602       -5.1854643948
 H       -12.2443509474        2.6490185524       -3.7595446415
 H       -12.2365014888        3.9532305462       -2.5027192779
 H       -11.7157112148        2.3902775123       -2.0715067875
 H       -10.9428658485        4.7445891262       -4.8508289653
 H        -9.3635300277        5.3674910085       -4.2732588380
 H       -10.8753409860        5.6088369714       -3.3511926804
 H        -6.5669659291        8.6408836956        2.6027225539
 H        -7.8789473944        8.8993320094        1.4260196506
 H        -6.1953055973        8.3483079465        0.9257099773
 H        -5.4301829533        6.0055206728        1.0895482466
 H        -6.4051570821        4.7981501592        2.0174199628
 H        -5.6790868220        6.0544042763        2.9527812529
 H       -13.5290164495        8.4298239322        7.0580064128
 H       -14.7825977236        7.5851086046        6.2197985901
 H       -13.7606345607        8.7886753918        5.3322874242
 H       -13.2263410741        5.7469306761        7.3700312611
 H       -11.5786607317        6.4730949342        7.7492780762
 H       -11.9359200087        5.1195798307        6.5627470259
 H       -12.5429213225        7.0592077246       -0.2662001700
 H       -13.5641338320        8.5983065025       -0.3422558900
 H       -13.2542440579        7.5597225611       -1.7715849810
 H       -15.7621503522        8.3143489317       -1.1873560905
 H       -16.7560180755        7.0908022579       -0.4153644686
 H       -16.2008434244        6.9959200118       -2.0932433510
 Na       -8.8180208903        0.3192324773       -2.5499247781
