117

 C       -15.8580458864        4.3232769933       -1.3811970109
 C       -14.5878976950        5.0893767926       -0.9420070668
 O       -13.4658727863        4.5946835539       -0.8867420916
 C       -14.6625052745        6.5484568291       -0.4438455226
 C       -14.9170105953        6.4671140054        1.1211601930
 O       -15.9989645123        6.8225721966        1.5840193063
 C       -13.7077066141        6.1245650700        1.9535975272
 C       -13.7366222347        6.8860907245        3.3173291628
 C       -13.1590434718        6.1024146007        4.4661682449
 O       -12.9188787797        4.9280674672        4.4041685598
 C       -12.6159495053        6.9530755506        5.7689734454
 C       -11.3749785716        7.7290440986        5.1847074898
 O       -11.2651152164        8.8862973391        4.9248144022
 C       -10.1404021889        6.7656698787        4.8791528191
 C        -9.5080162841        7.2129245821        3.6095918554
 C        -8.2560059586        6.3091977385        3.3116433018
 O        -7.8529406903        5.4221362353        4.0734785401
 C        -7.5092730219        6.6587235057        1.9704642077
 C        -8.4430312449        6.3704834525        0.7657525897
 O        -9.1939328361        7.1831618035        0.3241587255
 C        -8.1870722038        5.0419679600       -0.0193675800
 C        -9.4284080483        4.7892714229       -0.9741439946
 C        -9.2825383273        3.5304055765       -1.8953359689
 O        -8.6369637792        2.6242384618       -1.5275965490
 C       -10.1736583169        3.5879930240       -3.2754123639
 C        -9.4856844191        2.5546698386       -4.2732972371
 O        -9.7998975105        1.3662040612       -4.2149717515
 C        -8.3392139593        3.0624408289       -5.1599972418
 C        -7.4011328264        1.9544397253       -5.5587001825
 C        -6.2149469656        1.5934563985       -4.5955453347
 O        -5.6710540048        2.5090669857       -4.0186926770
 C        -5.4725049841        0.1686478071       -4.4799408693
 C        -6.0534150875       -0.5989897298       -3.3068748999
 O        -7.2453403140       -0.7991856661       -3.3229834530
 C        -5.2173017924       -1.1255149207       -2.1297632450
 C        -6.0229859327       -1.7018099751       -0.9694846273
 C        -6.8667243101       -0.6416016187       -0.2503098833
 O        -6.9257775373        0.4766272942       -0.7574590513
 C        -8.0441999985       -1.0503738575        0.8113701613
 C        -9.3078130778       -1.6884957348       -0.0258221457
 O        -9.7125001566       -1.2548174465       -1.0732759294
 C       -10.0747981381       -2.7466968047        0.6142144352
 C        -7.4600689637       -2.0621092691        1.8809458756
 C        -8.4651302954        0.2187926737        1.5394742067
 C        -5.7128877788       -0.7234218664       -5.7339770646
 C        -3.9834821642        0.5419797078       -4.2853021765
 C       -11.4477688217        2.9001534490       -2.8482834091
 C       -10.3712704234        5.0403059293       -3.8742011816
 C        -7.2007616977        8.1768662621        1.9741590609
 C        -6.2098770714        5.8727377391        1.8168017677
 C       -13.5647752834        7.9924940510        6.2311278252
 C       -12.2483202729        5.9641838604        6.8850518900
 C       -13.3015832316        7.3132623797       -0.7889110780
 C       -15.8925000792        7.4088723559       -1.0204399244
 H       -15.9588878472        3.4703802006       -0.7050740678
 H       -15.8051818567        3.8551898325       -2.3782439807
 H       -16.7491249254        4.9184906471       -1.0882149171
 H       -12.7721959757        6.3291708301        1.3623975289
 H       -13.7610824896        5.0507062452        2.0366095475
 H       -14.7483726055        7.1827080475        3.6330810603
 H       -13.1443540819        7.7921340926        3.2062440555
 H       -10.4271186945        5.7387834423        4.7862584631
 H        -9.4002631974        6.7443216049        5.7353898754
 H        -9.1892257438        8.1656385495        3.8642715183
 H       -10.1760854102        7.2273851050        2.7574031087
 H        -8.0648605197        4.2015279390        0.6895961077
 H        -7.3497056060        5.2566135162       -0.6876346053
 H        -9.5820871498        5.7075354017       -1.6257416295
 H       -10.3320294236        4.6541101626       -0.4720489065
 H        -7.7147494236        3.8880664444       -4.6703764669
 H        -8.6806223776        3.5489242781       -6.0787364029
 H        -6.9232206992        2.2715672628       -6.5671866231
 H        -7.9682827577        1.1528084836       -5.8661387388
 H        -4.3543873661       -0.4840244879       -1.8801643530
 H        -4.7344043635       -2.0992144212       -2.5556740433
 H        -5.3784918524       -2.2821887839       -0.2704773337
 H        -6.6893816090       -2.3941216555       -1.3740042778
 H       -10.3895632190       -2.5232608114        1.6321701926
 H        -9.5044397047       -3.6448026477        0.6851489917
 H       -10.9472284362       -2.9396672638       -0.0686087473
 H        -7.1207994419       -2.9206226408        1.4064183300
 H        -8.1697401172       -2.1575253268        2.6744984703
 H        -6.5452352175       -1.6436255152        2.3482570153
 H        -8.6481262696        1.0487791942        0.9668319795
 H        -7.6670998979        0.4371342812        2.2583044646
 H        -9.2708200958        0.0000633674        2.2258318300
 H        -5.5218562939       -0.0890806258       -6.6262980796
 H        -6.7684518430       -1.0527952835       -5.7412921289
 H        -5.1506124974       -1.6612606823       -5.6885789539
 H        -3.6015258753       -0.4612632100       -4.0375398583
 H        -3.8617572647        1.2356324700       -3.4977855803
 H        -3.5292526342        0.9286617726       -5.1692426221
 H       -11.9889621335        2.5680819552       -3.7113331623
 H       -12.0061113226        3.6227140743       -2.2283058157
 H       -11.2794026609        2.0373608656       -2.2247173244
 H       -10.9444560132        4.9763357739       -4.8176704458
 H        -9.4080617913        5.5379440123       -3.9624526656
 H       -10.9161905928        5.6654223759       -3.2243459489
 H        -6.4668659756        8.3666221508        2.7316464022
 H        -8.0926371455        8.6939707529        2.2394230375
 H        -6.7971769965        8.5792350953        1.0947246386
 H        -5.8805113600        5.8659395743        0.8211810309
 H        -6.4526247613        4.8880242761        2.1266927659
 H        -5.4841201688        6.0820393898        2.4810246900
 H       -13.1927973101        8.4622821798        7.1826447942
 H       -14.4733380134        7.5973322708        6.5544732706
 H       -13.7464051786        8.7523372476        5.4952669026
 H       -13.0995948593        5.4365854353        7.3355139989
 H       -11.8906657207        6.6820181530        7.5687326356
 H       -11.5101065684        5.1633309814        6.6731718016
 H       -12.6277647398        6.4676283869       -0.9826450098
 H       -13.0218899410        7.8734302295        0.0611839376
 H       -13.3981147692        7.9955124153       -1.6601701479
 H       -15.9624542611        8.4782906989       -0.5956442949
 H       -16.8064998848        6.8608259451       -0.9493086742
 H       -15.7533666652        7.5885704879       -2.0320785829
 Na       -9.0155193162        0.5233610353       -2.3107971518
