117

 C       -16.0106600452        4.2443507761       -0.9512506236
 C       -14.7144736210        4.9445073463       -0.7928107075
 O       -13.6823973723        4.3392793099       -0.9124876769
 C       -14.7060089028        6.4699320027       -0.4435767978
 C       -15.0999446897        6.5604313365        1.0824316221
 O       -16.2088483858        6.8475891982        1.4523551239
 C       -14.0334536309        6.0527542035        2.0471738606
 C       -14.2161348971        6.5972798249        3.5134883289
 C       -13.1650260814        5.9496922106        4.4703963078
 O       -12.7280917199        4.8433644919        4.1582712717
 C       -12.7088644340        6.7018268863        5.6562492343
 C       -11.2873296456        7.3260290262        5.3338360485
 O       -11.1537071727        8.5553395695        5.3322238626
 C       -10.0966402077        6.4756043133        4.9471840827
 C        -9.3367108134        7.0270742618        3.7962428733
 C        -8.0802480567        6.2214040831        3.4500323738
 O        -7.7472253467        5.2712197048        4.0756325364
 C        -7.3366013044        6.6467647894        2.0478133703
 C        -8.3360914633        6.4721033028        0.8798902621
 O        -9.3089391902        7.2211742640        0.8110649573
 C        -8.0920485485        5.3538873526       -0.1295022158
 C        -8.9563823326        5.3185520103       -1.4442294157
 C        -9.2104373951        3.8932551037       -1.8969559987
 O        -8.7186655257        2.9166335399       -1.2878419354
 C       -10.0891118573        3.6342252694       -3.2180566278
 C        -9.3931973780        2.4868201220       -4.0929763579
 O        -9.4717546929        1.3041286689       -3.8249124850
 C        -8.4678192542        2.8893393676       -5.2556537467
 C        -7.3438659265        1.8923010640       -5.7296002475
 C        -6.1284242943        1.7917390973       -4.7741570891
 O        -5.8445144997        2.7813959335       -4.1147024543
 C        -5.3719239281        0.4602722413       -4.6409562982
 C        -6.1688894277       -0.1951250717       -3.4192050973
 O        -7.3565427269       -0.4076441547       -3.4340061554
 C        -5.2963030285       -0.7651624257       -2.2053928280
 C        -6.2184048553       -1.5245145324       -1.2079235737
 C        -7.1026676965       -0.5440488022       -0.3602670361
 O        -6.9122374918        0.6482551934       -0.4856321722
 C        -8.1903327891       -1.1028442786        0.6572461137
 C        -9.2908851776       -1.8226013294       -0.2327407871
 O        -9.8313637742       -1.1916665340       -1.1465635303
 C        -9.6993352812       -3.2514546367        0.1199599957
 C        -7.4071616270       -1.9475122644        1.6392820316
 C        -8.9290378632        0.1382541534        1.4316354905
 C        -5.4692561767       -0.6328327420       -5.8003610918
 C        -3.8853079804        0.8262237393       -4.5045643421
 C       -11.4306442927        3.1547230305       -2.6881681608
 C       -10.3921020424        4.8133004424       -4.1633530222
 C        -6.9882907252        8.1769490862        2.1323685734
 C        -6.0538131538        5.8303637727        1.8638123707
 C       -13.5757568735        7.8942015351        6.0477186112
 C       -12.5996884307        5.6962824874        6.9029652118
 C       -13.2597139603        7.0442071265       -0.7735266951
 C       -15.6894226080        7.1616739504       -1.2943902838
 H       -15.6352778764        3.3067520235       -1.3782001111
 H       -16.7499540675        4.7285931052       -1.6464505724
 H       -16.4747185383        4.0246450486        0.0133309987
 H       -13.0458781793        6.2619987938        1.6248678401
 H       -14.1423029615        4.9702978031        2.0754260044
 H       -15.2607965149        6.3754817712        3.8978293018
 H       -14.1360619693        7.6450791147        3.4780133227
 H       -10.4258366212        5.4253978019        4.8052535747
 H        -9.3947873818        6.4038421105        5.7802063964
 H        -8.9782798523        8.0119516122        4.0709509512
 H        -9.9251299094        7.1123862255        2.9266346536
 H        -8.1975264046        4.3854046560        0.4599019232
 H        -7.0384846150        5.3791258090       -0.3865646424
 H        -8.4465927194        5.7022623838       -2.2662118525
 H        -9.9767157043        5.7659962846       -1.2596649752
 H        -7.9639922917        3.8342078818       -4.8889347696
 H        -9.1425988194        3.2167904056       -6.0692790456
 H        -6.9537126217        2.1879399684       -6.6886171153
 H        -7.8560091089        0.8858754470       -5.9703762733
 H        -4.7980734111        0.0917227290       -1.6709584723
 H        -4.4148874319       -1.3501462660       -2.6230844291
 H        -5.5886532747       -2.0448924945       -0.5307498809
 H        -6.8722858070       -2.2391158872       -1.7354740457
 H       -10.0509950473       -3.3126622267        1.1340663291
 H        -8.8437155479       -3.9763311942        0.0123338718
 H       -10.3996116756       -3.6237455912       -0.5807161106
 H        -6.9599180051       -2.7169541401        0.9560116493
 H        -8.0401709756       -2.4455858384        2.3639871007
 H        -6.6570088209       -1.3451771302        2.1130339434
 H        -9.6852034922        0.5536233229        0.7595587761
 H        -8.2499435381        0.8913532575        1.6941356712
 H        -9.5109809020       -0.2130561580        2.2428770228
 H        -4.9489116460       -0.1236368973       -6.6153802519
 H        -6.4712775501       -0.7832137844       -6.1868493843
 H        -4.8556558962       -1.5352589083       -5.6554224108
 H        -3.3677766300       -0.0928323963       -4.2879623057
 H        -3.7595618351        1.5681122361       -3.7252574382
 H        -3.5742796928        1.2255078083       -5.4666654904
 H       -11.9185779485        2.4577954826       -3.3463669845
 H       -12.1005595000        3.9625653648       -2.5036269264
 H       -11.1791688979        2.5938750470       -1.7652914256
 H       -10.9469424752        4.4422888642       -4.9878192434
 H        -9.5244475799        5.2895361522       -4.5715799956
 H       -11.0352103723        5.6076197350       -3.6696341075
 H        -6.4256062810        8.2677186989        3.0157492386
 H        -7.8313861404        8.8121373835        2.1604450913
 H        -6.3725945777        8.4856432137        1.2724928409
 H        -5.5702343613        6.0887841506        0.9690839598
 H        -6.2269225770        4.7958658614        1.8901674123
 H        -5.3528231104        6.1229565056        2.6785920688
 H       -13.4767169645        8.3463162600        6.9756961247
 H       -14.6215228838        7.5347352863        5.8882898514
 H       -13.4776404058        8.7163357014        5.3266063480
 H       -13.5694396892        5.3984997294        7.3076495159
 H       -12.0118166863        6.1074910543        7.7631390678
 H       -12.0112453718        4.8654132087        6.5329159932
 H       -12.5219630704        6.7278110162       -0.0889332393
 H       -13.3693775310        8.1730725530       -0.7065565048
 H       -13.0007911476        6.7247494287       -1.7898654389
 H       -15.5178311026        8.1488867966       -1.4105710762
 H       -16.6193319707        7.1710935553       -0.7241144219
 H       -15.8468903183        6.5825992320       -2.2408964182
 Na       -8.8847662214        0.6919148088       -1.8277224750
