117

 C       -15.4956891801        4.4404662136       -1.3368162549
 C       -14.3797589262        5.4104137138       -0.8681443452
 O       -13.1831697108        5.0136185247       -0.7937794635
 C       -14.6685439392        6.8806788412       -0.5022378768
 C       -14.8968509708        6.6525695445        1.1274917681
 O       -15.9805096013        6.8340270431        1.5673488178
 C       -13.7828348426        6.1719974923        2.0183237183
 C       -13.8367733665        6.9413167561        3.3979489688
 C       -13.1512737883        6.1965973941        4.6181675014
 O       -13.0817479368        4.9810351247        4.6419569387
 C       -12.5328013960        7.0808677665        5.6664539208
 C       -11.2954386123        7.9039539980        5.0654163697
 O       -11.4219418981        9.1140575004        4.8063543524
 C       -10.0589763333        7.0424639908        4.7359177927
 C        -9.2241872971        7.5581477872        3.5987539878
 C        -8.3595512000        6.4696879030        2.9549749943
 O        -8.2014211662        5.4249120563        3.5055322836
 C        -7.4555731370        6.7348100311        1.6101503719
 C        -8.5193781644        6.3031477521        0.5862227268
 O        -9.3596167370        7.1309132384        0.2197828823
 C        -8.6689455878        4.7982241270        0.0780603844
 C        -9.6380374910        4.8285638011       -1.0975264593
 C        -9.7230478392        3.5483447639       -1.8522887639
 O        -9.0651771182        2.5369369617       -1.4869833654
 C       -10.2774199277        3.5475465182       -3.3068324143
 C        -9.4151195718        2.5451537201       -4.1514062873
 O        -9.8620539694        1.3966041230       -4.3046906784
 C        -8.0886435767        2.8640907783       -4.7763236028
 C        -7.2117332264        1.6995919309       -5.1979503905
 C        -6.1064019654        1.3369836735       -4.1665033175
 O        -5.7273580570        1.9863293447       -3.2401297433
 C        -5.3757924183       -0.0198201313       -4.5829593890
 C        -6.0653858739       -0.9147286045       -3.4448967817
 O        -7.2154395229       -1.3797667662       -3.6252956335
 C        -5.2207092220       -1.2630677263       -2.1699989757
 C        -6.0794973910       -1.8104385161       -0.9960899106
 C        -6.9875526866       -0.6733925594       -0.3623371671
 O        -7.0927044346        0.4365617183       -0.8186671921
 C        -7.8497811648       -1.1826754165        0.8434328400
 C        -9.3001284846       -1.5761957551        0.3895285811
 O        -9.7533645244       -1.2478720347       -0.6921256979
 C       -10.2219516165       -2.4728806587        1.3113325931
 C        -7.2358883193       -2.4488332988        1.6406829348
 C        -8.0571056940        0.0816374699        1.7826707633
 C        -5.6803161360       -0.6082358215       -6.0063155711
 C        -3.8433545521        0.1498852701       -4.3651255618
 C       -11.7580412157        3.0257861148       -3.1847891753
 C       -10.2427308587        5.0022542728       -3.9345939570
 C        -6.9878772018        8.1692809648        1.5678044105
 C        -6.2422461127        5.7575866881        1.6102641644
 C       -13.5857692000        8.1898245635        6.1654036815
 C       -12.0962886157        6.1794979924        6.8767523603
 C       -13.3979463622        7.7721513841       -0.8787056474
 C       -15.8995705883        7.4969812778       -0.9936726486
 H       -15.1166440052        3.3840887679       -1.5128337296
 H       -16.0495313473        4.7442871889       -2.2236688298
 H       -16.1802513642        4.3919237533       -0.4817366507
 H       -12.8610810315        6.2054148874        1.4741550962
 H       -13.9760022429        5.0777560333        2.1956641106
 H       -14.8393811147        7.2623743287        3.5842999024
 H       -13.1929610786        7.8807264749        3.3127569101
 H       -10.3394413054        5.9980191841        4.4886242138
 H        -9.4353667401        7.0750673843        5.6423371766
 H        -8.4563235394        8.2091912677        3.9419897745
 H        -9.7792544475        8.1479550539        2.9086183487
 H        -9.0126011204        4.3036165555        0.9839062997
 H        -7.6542851333        4.4318780807       -0.2717158273
 H        -9.2959718510        5.6162045882       -1.8069202003
 H       -10.6306793302        5.1842009208       -0.9127934886
 H        -7.4388139930        3.4500816205       -4.1218209207
 H        -8.1597993630        3.5940030428       -5.6583078584
 H        -6.7616662793        1.8241847383       -6.1387946575
 H        -7.8796579684        0.8255756653       -5.3511363074
 H        -4.6988525295       -0.3041957290       -1.8052406803
 H        -4.3785600447       -1.9275400394       -2.4947622172
 H        -5.4874713885       -2.2775206444       -0.2429988199
 H        -6.8051283082       -2.5508903035       -1.2971091869
 H       -10.2771403301       -2.0627256117        2.3574962041
 H        -9.7394204198       -3.4428439619        1.4628139795
 H       -11.2310779209       -2.5417306645        1.0113325461
 H        -7.2752487675       -3.4540075171        1.1789939954
 H        -7.8863077995       -2.5645122053        2.5221224551
 H        -6.2810778738       -2.2017114104        2.0104451821
 H        -8.3423403045        0.8733645159        1.0879608050
 H        -7.2367208350        0.3990634729        2.3150605271
 H        -8.8668744132       -0.0198400053        2.4915940270
 H        -5.6703237081        0.2232242556       -6.7435633347
 H        -6.6335831140       -1.1970577504       -5.9434113515
 H        -4.7939155358       -1.2360556600       -6.2770288490
 H        -3.4322799060       -0.7713788852       -4.1637924997
 H        -3.7927715902        0.8116479291       -3.4559489702
 H        -3.3301293912        0.5656201130       -5.2203680807
 H       -12.3976421695        3.3787764911       -4.0309440720
 H       -12.1806413480        3.2863722297       -2.2285769057
 H       -11.7427564292        1.9480270918       -3.2007179207
 H       -10.5464917939        4.8984737028       -4.9778612631
 H        -9.2612243521        5.4915256263       -3.9352283852
 H       -11.0338214296        5.5652360023       -3.4418997607
 H        -6.6585808030        8.4304180880        2.5680792495
 H        -7.7567917839        8.8628513169        1.3350005264
 H        -6.1720545016        8.3390026469        0.9167933715
 H        -5.9134258401        5.6677041326        0.6199138490
 H        -6.4058481050        4.7888791260        1.9142424720
 H        -5.3939183446        6.2464149537        2.0851302427
 H       -13.1929037509        8.8440087158        6.9073518651
 H       -14.5334184929        7.7275211004        6.5043137444
 H       -13.8734271886        8.7877894601        5.3250365450
 H       -12.8899522904        5.5270842450        7.2184750307
 H       -11.7246140557        6.8644185084        7.6765407211
 H       -11.2410167029        5.6346042297        6.5424937262
 H       -12.4644108214        7.4126959202       -0.4058023922
 H       -13.6925502559        8.7627957413       -0.4920481410
 H       -13.3563787006        7.8057772336       -1.9400758204
 H       -16.1222770726        8.3958058215       -0.5222826572
 H       -16.7583671874        6.8127958610       -0.9987102025
 H       -15.7158874740        7.7529356963       -2.0749345546
 Na       -8.8142016378        0.3175484845       -2.2472656619
