117

 C       -15.1730898268        4.3955693787       -1.2887483575
 C       -14.1829942862        5.4954407112       -0.9071438613
 O       -12.9577616237        5.2490922414       -0.9859440451
 C       -14.6532849876        6.9178095883       -0.3520793692
 C       -15.0498668487        6.7712994133        1.1418289559
 O       -16.1416307514        7.0741821894        1.5077881572
 C       -13.8914283009        6.3570518890        2.0530138492
 C       -13.9534561786        7.0659453695        3.4305279543
 C       -13.1403136707        6.3523671908        4.5351110245
 O       -12.9477106732        5.1444222542        4.4830438198
 C       -12.4527604335        7.2502809451        5.6349970648
 C       -11.2347860043        7.9388823229        4.9173227738
 O       -11.1769107739        9.1260779809        4.5825523244
 C       -10.1040968652        7.0020901442        4.6732970369
 C        -9.1534079523        7.5668328220        3.5984104209
 C        -8.3789397112        6.3864143466        2.9563232563
 O        -8.3329899115        5.2720636053        3.3687280094
 C        -7.6172084762        6.6620881652        1.5506464450
 C        -8.7035722026        6.4124095800        0.5421689333
 O        -9.3883850019        7.3728826471        0.2293396845
 C        -8.9828132126        4.9838999447        0.0705589630
 C        -9.9045383985        4.9121564903       -1.1342005305
 C        -9.8435954648        3.5818876765       -1.8641997261
 O        -9.6612187754        2.5335241963       -1.2501365409
 C       -10.2471339647        3.4796536992       -3.3433134138
 C        -9.2772810701        2.4280966794       -3.9844680524
 O        -9.6735239060        1.2115816766       -3.9401262142
 C        -7.9926464632        2.8544674466       -4.5680914129
 C        -7.0816437619        1.7007502252       -5.3032539969
 C        -6.0959663959        1.1260881404       -4.3264327397
 O        -5.9655597357        1.6796782603       -3.2713268631
 C        -5.3668493967       -0.2120558780       -4.5646507832
 C        -5.9572509502       -1.0032812734       -3.4458265673
 O        -7.1512619412       -1.3744538356       -3.5037934102
 C        -5.1598171548       -1.3012695655       -2.1716190335
 C        -6.0988197023       -1.9213134426       -1.0790162083
 C        -6.9157140962       -0.9041420922       -0.3255565899
 O        -6.9425712837        0.2037280425       -0.8726481119
 C        -7.7585253890       -1.3223588642        0.8731906438
 C        -9.3454826101       -1.5658652327        0.4917429606
 O        -9.7918297874       -1.1305493591       -0.5348343323
 C       -10.3071922486       -2.1902995724        1.4236883200
 C        -7.1835399123       -2.5442984484        1.6495456466
 C        -7.7824737637       -0.1025079701        1.9417851837
 C        -5.6131665713       -0.7727825023       -5.9304617588
 C        -3.8440494931        0.1117966832       -4.3270921854
 C       -11.7326783966        2.9222172900       -3.2735092861
 C       -10.1760314111        4.8173628533       -4.1395135271
 C        -7.1581762051        8.0793861734        1.3299242895
 C        -6.3924021192        5.7374571502        1.4301180958
 C       -13.4163337860        8.3485199845        6.2210516524
 C       -11.9493574890        6.3419730266        6.7345408904
 C       -13.4818974222        7.9345578447       -0.4202729415
 C       -15.7974424902        7.4621018535       -1.2248192177
 H       -14.5872681352        3.5587493349       -1.8190704509
 H       -16.0932431840        4.7058636865       -1.6782808564
 H       -15.3911661690        3.9602225172       -0.2815785024
 H       -12.9024901108        6.6046764681        1.5955050276
 H       -13.8832836432        5.2844702003        2.0947057542
 H       -14.9560862927        7.0912136929        3.8864751139
 H       -13.6736353759        8.1332515920        3.3808724407
 H       -10.5414420754        6.0480275612        4.4557190185
 H        -9.4189981095        6.9539045144        5.5700761361
 H        -8.4970754367        8.2618150588        4.1071148475
 H        -9.5842350833        8.2539632301        2.7808346823
 H        -9.3298800580        4.3771717108        0.8970414331
 H        -7.9817308104        4.5798063356       -0.1449491946
 H        -9.5913302315        5.6838904839       -1.9543203570
 H       -10.8900277899        5.2181802627       -0.9794518103
 H        -7.3143116951        3.3071419529       -3.8415788512
 H        -8.0941654288        3.6333516668       -5.2908469304
 H        -6.5119057561        2.1606874534       -6.1975476990
 H        -7.7552078977        0.9766517431       -5.7257341980
 H        -4.6593101089       -0.3971022869       -1.8819411638
 H        -4.3858247471       -2.0367289579       -2.4289681766
 H        -5.5218736474       -2.5501912657       -0.2926535332
 H        -6.7885154881       -2.6019551952       -1.5856459997
 H       -10.2053959526       -2.1250664506        2.5708207290
 H       -10.3464950177       -3.2315116814        1.1315429516
 H       -11.2408147812       -1.7490843546        1.1686846809
 H        -7.3732642411       -3.5209442331        1.2528495288
 H        -7.7063754561       -2.6828584623        2.6212140774
 H        -6.1292191308       -2.3591031582        1.9135240983
 H        -8.1220770047        0.8553057032        1.4968309484
 H        -6.8082552774        0.0874887790        2.2756202564
 H        -8.5092873727       -0.2845694974        2.8284076890
 H        -4.9310207913       -0.1942492753       -6.4987767654
 H        -6.6754618054       -0.5723694363       -6.0770929827
 H        -5.3121480474       -1.8020063045       -6.0405572007
 H        -3.3249064386       -0.7955880370       -4.4554684272
 H        -3.6979444218        0.5671089011       -3.2718017911
 H        -3.4468722925        0.8058421319       -5.0675657372
 H       -12.0495147309        2.6667520552       -4.3078524383
 H       -12.4708482009        3.6853091159       -2.9516790332
 H       -11.8058219321        2.0711751608       -2.6372560260
 H       -10.2939312721        4.6472957033       -5.2332881142
 H        -9.1372604918        5.1661905647       -4.0928448012
 H       -10.8696677437        5.5087298648       -3.7897004693
 H        -6.3467733386        8.4130325219        2.0710518900
 H        -7.9672879452        8.8198855934        1.5623116264
 H        -6.9286187263        8.3013957751        0.3097955997
 H        -5.7841875400        5.8310074444        0.4714647150
 H        -6.6520789159        4.6708837520        1.4014849172
 H        -5.6377330892        6.0966168278        2.1638286152
 H       -12.7875191992        9.0298754778        6.8631304072
 H       -14.2086376034        7.8690218607        6.7908287070
 H       -13.9321263610        8.9856843436        5.5096684276
 H       -12.8116232622        6.1061562070        7.3351111766
 H       -11.3568059631        7.0086279114        7.3494398264
 H       -11.2693595948        5.5677498574        6.4247392271
 H       -12.5648817702        7.2903363600       -0.2980701870
 H       -13.5386221579        8.5780701251        0.4071221414
 H       -13.4769306573        8.4516949169       -1.3580135074
 H       -15.9906999577        8.4849748651       -0.9200051335
 H       -16.7927530174        7.0245479108       -1.0333290124
 H       -15.5804999934        7.3845895078       -2.2907418967
 Na       -8.9530415967        0.3251411516       -2.1448657534
