117

 C       -15.0102472989        4.4535674919       -1.1308799713
 C       -14.0338044542        5.6630011411       -0.9434516085
 O       -12.8920665413        5.5170911060       -1.2434269030
 C       -14.5405212017        6.9822294041       -0.2847988260
 C       -15.0905207173        6.8678556808        1.1770624892
 O       -16.2562906506        7.1098891701        1.4695002261
 C       -14.1162745603        6.3880099543        2.2553823291
 C       -14.1137664450        7.2116637309        3.5308761598
 C       -13.1438741794        6.5999044957        4.5513809950
 O       -12.7788630995        5.4620174550        4.3506143469
 C       -12.4814669014        7.3457129363        5.7418536834
 C       -11.2342738711        7.8792119001        4.9353338103
 O       -11.3076132071        8.9623600092        4.4557925182
 C        -9.9661811458        7.0237913543        4.6412418621
 C        -9.0298389055        7.5117162505        3.5293884195
 C        -8.2240503060        6.3741136521        2.8191232004
 O        -8.2481737246        5.2078546149        3.2429794413
 C        -7.5881403334        6.7104315874        1.4770563653
 C        -8.8144211342        6.4535862767        0.4217543401
 O        -9.5223907527        7.3520087134        0.1042885073
 C        -9.1299568265        4.9688454933        0.0611506020
 C        -9.9751697276        4.9718962467       -1.2069395272
 C       -10.0331306358        3.5202810804       -1.8134230097
 O        -9.7490411514        2.5225861852       -1.1719111363
 C       -10.3106575591        3.3609879653       -3.4154567360
 C        -9.2527762263        2.2992660298       -4.0417410177
 O        -9.4046954224        1.1346713753       -4.0274730284
 C        -8.0412432580        2.8451892591       -4.8058567203
 C        -7.1415248650        1.6836813237       -5.2178516062
 C        -6.1368315556        1.2311807442       -4.2264444585
 O        -5.9111151758        1.9004834964       -3.1997510739
 C        -5.4849616013       -0.1834069354       -4.4818733514
 C        -6.1015876507       -1.0901293229       -3.3131094162
 O        -7.2650255482       -1.3284289738       -3.3460200937
 C        -5.2858533659       -1.5279856245       -2.1398465455
 C        -5.9758726928       -2.0970877511       -0.9245367910
 C        -7.0452014267       -1.1680720260       -0.3783226706
 O        -6.9873465309        0.0042995553       -0.7080873374
 C        -7.8009080531       -1.4356896476        0.9695480321
 C        -9.2525905708       -1.4410339874        0.6109800402
 O        -9.7235482800       -1.0373329590       -0.4532724243
 C       -10.1595466726       -2.1597499246        1.5644685672
 C        -7.3269359867       -2.7334538748        1.6176658705
 C        -7.6229159780       -0.1616159794        1.8349392967
 C        -5.7394590859       -0.8838495025       -5.9252654011
 C        -4.0259552585       -0.0302115251       -4.3103414178
 C       -11.6569736389        2.6897093283       -3.7336005913
 C       -10.1995312705        4.7073397466       -4.2039437981
 C        -6.9972532823        8.2507063418        1.4125122253
 C        -6.3426887731        5.7565437174        1.2993949411
 C       -13.3244292546        8.4906785424        6.1443783740
 C       -12.1455898812        6.3902846666        6.9510167133
 C       -13.3941286535        8.0056590285       -0.4174734926
 C       -15.7615955093        7.4127675063       -1.2001084109
 H       -14.4536338330        3.6416754534       -1.5669017466
 H       -15.8365399880        4.8846517028       -1.7416374653
 H       -15.5739250136        4.1137155415       -0.2475743235
 H       -13.1093523449        6.2805701981        1.8949368658
 H       -14.4145424486        5.3333854289        2.5255390873
 H       -15.1271457690        7.3994719043        3.9165103289
 H       -13.6706775743        8.2122395291        3.4378197445
 H       -10.3287441183        6.0030374124        4.3289014654
 H        -9.4445468106        6.9313367422        5.5712602393
 H        -8.3087421013        8.2823127153        3.8285514184
 H        -9.6162329915        8.0544489958        2.8653722895
 H        -9.6197623283        4.4128840742        0.8942406392
 H        -8.2107806672        4.3917759860       -0.0324023043
 H        -9.6005839729        5.5495560241       -1.9563612427
 H       -11.0142987458        5.4410742533       -1.1189353037
 H        -7.3897601760        3.5571967132       -4.2839706618
 H        -8.1921995957        3.3649855467       -5.7773770580
 H        -6.6268003571        1.9318621111       -6.1114286588
 H        -7.8753909004        0.8949638054       -5.4177495997
 H        -4.6839172220       -0.6150777132       -1.8231743783
 H        -4.5268659614       -2.2811705814       -2.4812287873
 H        -5.2863131458       -2.1633485916       -0.1446720998
 H        -6.3918957166       -3.0935399849       -1.1123291777
 H        -9.7176318113       -2.0262113116        2.5180342762
 H       -10.1883598433       -3.2438109655        1.3618621811
 H       -11.1991056943       -1.7709524931        1.6353451426
 H        -7.4213557741       -3.5893640238        0.9473359435
 H        -7.7597167001       -3.1206155612        2.4979165689
 H        -6.2920521760       -2.5511872177        1.8901538948
 H        -8.0345252432        0.7295985103        1.5189168989
 H        -6.5340151309       -0.0108206033        1.8600148478
 H        -8.0349934906       -0.3249017590        2.7962506765
 H        -5.3684520447       -0.2168574695       -6.7696595204
 H        -6.7716642067       -1.2273734444       -5.8641152068
 H        -4.9783695807       -1.7029146429       -5.8866548699
 H        -3.4784717269       -1.0110450466       -4.1843374519
 H        -3.8217742865        0.5995158539       -3.5284691972
 H        -3.6635545628        0.4399576071       -5.2168629119
 H       -11.7837618608        2.3189393188       -4.7237623653
 H       -12.4432982625        3.4351999123       -3.6418053239
 H       -11.8436784563        1.8871702854       -2.9809701291
 H       -10.2976545112        4.5199245549       -5.2591384436
 H        -9.2661818382        5.2477104830       -4.0421180977
 H       -11.0886056841        5.3017437529       -3.8479506428
 H        -6.5065160386        8.4627385303        2.2995784066
 H        -7.6889189751        9.0573988717        1.3078637201
 H        -6.3144813210        8.3878012776        0.5497776398
 H        -5.6908656462        6.0347729972        0.5170938657
 H        -6.6883689649        4.7674591731        1.0198818845
 H        -5.7354202682        5.7139686301        2.1659067491
 H       -12.9082389349        8.9106920258        7.0288217214
 H       -14.3138771255        8.1179171947        6.2771275015
 H       -13.3766763064        9.3067565578        5.4372696156
 H       -12.8578072120        6.6397062852        7.7200581138
 H       -11.1648339354        6.5387503567        7.3591589830
 H       -12.2347601011        5.3750956318        6.5724202891
 H       -12.5787896276        7.6441658744        0.1437427488
 H       -13.7461310694        8.9495403635        0.0415387775
 H       -13.1268839045        8.0979906465       -1.4928675801
 H       -15.8197209131        8.5032620700       -1.5084710773
 H       -16.7062121196        7.3305255306       -0.7054896129
 H       -15.7724614606        6.7671072864       -2.0416457619
 Na       -8.7471477563        0.3676527468       -1.9702824330
