117

 C       -15.3872088419        4.5140885746       -1.2438281683
 C       -14.2523915306        5.4538269620       -0.9666752644
 O       -13.1339598376        5.0129259736       -0.7993048571
 C       -14.6776856859        6.9045629375       -0.4800722542
 C       -14.8780456027        6.7138092253        1.1083132218
 O       -16.0255917270        6.9146801598        1.4812402065
 C       -13.7874669455        6.1926595277        2.1088514533
 C       -13.8933283438        6.9495143527        3.4081031512
 C       -13.1108550729        6.2392201835        4.5286458263
 O       -13.1026547252        5.0544919763        4.6015939011
 C       -12.4400967815        7.1831462518        5.6755740145
 C       -11.2514799519        7.9371308540        5.0104353553
 O       -11.2907750240        9.1146795050        4.7356604318
 C       -10.0837607963        7.0466343553        4.6808720203
 C        -9.1592045314        7.6315391266        3.5818408380
 C        -8.3085547715        6.4574682349        2.9936263704
 O        -8.2849569269        5.3196884975        3.4631671153
 C        -7.5300306181        6.7206165275        1.5901647407
 C        -8.6107032249        6.3694750127        0.5469725867
 O        -9.4488395787        7.1541216946        0.1430148480
 C        -8.7741901260        4.8757811680        0.0661059703
 C        -9.6501093389        4.8579024284       -1.1347526362
 C        -9.6014711078        3.5523043945       -1.9016606049
 O        -9.2951593257        2.5385195248       -1.2876557659
 C       -10.2931703849        3.5227455009       -3.3558684029
 C        -9.4522309437        2.4781222538       -4.1405156956
 O        -9.7170301634        1.3221143240       -4.1890420183
 C        -8.0713337279        2.9710298444       -4.6448641425
 C        -7.2182632188        1.7954666021       -5.1678054676
 C        -6.1193061136        1.2501664656       -4.2715302891
 O        -5.8459481722        1.8069050604       -3.2342401390
 C        -5.2978781465       -0.1543161749       -4.5091905910
 C        -6.0008180678       -1.0640092798       -3.4706904542
 O        -7.1437722316       -1.3810979659       -3.6743305071
 C        -5.2692370124       -1.2924763949       -2.1895346706
 C        -6.0837288298       -1.7746848592       -1.0266931557
 C        -6.9275366998       -0.7839107019       -0.2990208188
 O        -7.0715806083        0.3248228714       -0.7358670144
 C        -7.8316448301       -1.1688668824        0.9157590974
 C        -9.2874664256       -1.5661173330        0.3783074363
 O        -9.8113419339       -1.2237529523       -0.6804615714
 C       -10.1180632075       -2.3432386973        1.3750766928
 C        -7.2787869302       -2.4510386572        1.6022238920
 C        -7.9741305662        0.0240737259        1.8157673539
 C        -5.5345313170       -0.6821285328       -5.9137860304
 C        -3.7553336270        0.1021411542       -4.4419720323
 C       -11.8002108598        3.1489760999       -3.1857310548
 C       -10.2805924937        4.9223321623       -3.9705227916
 C        -7.0918763062        8.1156039365        1.5924009577
 C        -6.3605457670        5.7179548190        1.5579997540
 C       -13.5390517262        8.1639860467        6.1338070796
 C       -11.9469299205        6.2805892163        6.8182626777
 C       -13.4400770919        7.8673204683       -0.7039551336
 C       -15.9580714868        7.4540616093       -1.1090693423
 H       -15.0167171967        3.7160635718       -1.7751298102
 H       -16.1853112018        5.0252792856       -1.9031363601
 H       -15.8237789577        4.1637126522       -0.3507383447
 H       -12.8037651109        6.2213190397        1.6975043371
 H       -14.0191251941        5.1096182592        2.2540877200
 H       -14.9191582857        6.9523275160        3.7672845241
 H       -13.6007425791        7.9879089295        3.2982616656
 H       -10.4642857584        6.0622904341        4.3310591298
 H        -9.4717984841        6.9322614381        5.5287801590
 H        -8.5067038517        8.4576522843        3.9768410094
 H        -9.6777790993        8.0805678745        2.7696817120
 H        -9.1485788684        4.3331186694        0.9688835279
 H        -7.7814702143        4.4985334352       -0.2192134581
 H        -9.5607131808        5.7284543686       -1.6803525734
 H       -10.7933372247        4.9028882410       -0.8912688374
 H        -7.4361919056        3.5757833051       -4.0046181221
 H        -8.1032707165        3.6362973966       -5.5421512728
 H        -6.8679386935        1.9875571316       -6.1266733903
 H        -7.9644928565        0.9503317118       -5.2987953650
 H        -4.6308550511       -0.4183162010       -1.9784078844
 H        -4.5669748897       -2.0757968432       -2.4087968705
 H        -5.4547371720       -2.2927486260       -0.3702668748
 H        -6.8188873569       -2.5245491635       -1.4050762565
 H        -9.9974608233       -1.9949305997        2.3191545185
 H        -9.9167482740       -3.4243613042        1.4134415490
 H       -11.1828149518       -2.1200184353        1.1697453841
 H        -7.3906773191       -3.2637712329        0.8346087075
 H        -7.8602760745       -2.8763659891        2.3937443779
 H        -6.2615593423       -2.3424374990        1.9401569360
 H        -8.1957593843        0.8686154329        1.1358213657
 H        -7.0634176326        0.3235109816        2.4510106223
 H        -8.8035687164       -0.0435812176        2.4270373163
 H        -5.3661076704        0.0331600350       -6.7029747405
 H        -6.4691142672       -1.1701027056       -5.8557156485
 H        -4.7395365507       -1.3972532186       -6.0178473451
 H        -3.1424371170       -0.8417364077       -4.4554280836
 H        -3.5210964685        0.7522382166       -3.6578457150
 H        -3.5322021457        0.6121617425       -5.3981417665
 H       -12.3641258200        3.4755949524       -4.0417794516
 H       -12.2562272656        3.5097865775       -2.2787742735
 H       -11.8269584965        2.0401398118       -3.1431057938
 H       -10.6957265148        4.8351434791       -4.9341176019
 H        -9.2922250593        5.2900383991       -4.1304983035
 H       -10.9622753252        5.5992795630       -3.3718124324
 H        -6.4622999457        8.3246162636        2.3837024454
 H        -7.9003859375        8.7998520964        1.6706323750
 H        -6.6019390668        8.3753566794        0.6281316562
 H        -6.0802977384        5.3284469816        0.6228831374
 H        -6.6001755024        4.8206170142        2.1000315221
 H        -5.4786327464        6.2547104831        1.8605303692
 H       -13.0405973243        8.9015100449        6.7025077968
 H       -14.3852563490        7.7059796761        6.7070354668
 H       -14.0044632531        8.7174462275        5.2897275270
 H       -12.7272491467        5.5394973901        6.9987162259
 H       -11.6379402516        6.7737612836        7.7656138185
 H       -11.0556118567        5.8404781409        6.3794039438
 H       -12.5061002856        7.4124596908       -0.5501547100
 H       -13.5838489426        8.8063415211       -0.0842803508
 H       -13.6056235944        8.1078724488       -1.7515930618
 H       -16.4462902870        8.1821842649       -0.5127332212
 H       -16.7238731875        6.7092048355       -1.3020215350
 H       -15.7224638767        7.8942455618       -2.1028806657
 Na       -8.9290896186        0.3269575079       -2.1919495999
