117

 C       -15.0216381609        4.5111090798       -0.9578291202
 C       -14.0221562480        5.7036376158       -0.8960424946
 O       -12.9181466761        5.5903933568       -1.3924971422
 C       -14.5556914490        7.0176127297       -0.3115555201
 C       -15.1181385555        6.8852531734        1.1486156560
 O       -16.2695727121        7.1204487159        1.3870366312
 C       -14.2058021340        6.3804098598        2.3330285447
 C       -14.0789323470        7.2550382656        3.5465875231
 C       -13.1180216829        6.5791206101        4.5331260296
 O       -12.7097419851        5.4252557763        4.2783435636
 C       -12.5056662607        7.4020760451        5.6976886270
 C       -11.1139874030        7.9264668292        4.9070269663
 O       -11.2181669499        8.9696620256        4.2846339511
 C        -9.9429148818        6.9315103029        4.6780340245
 C        -9.1116122207        7.4808866741        3.5314246543
 C        -8.2849011974        6.3861839250        2.8150281339
 O        -8.2091831707        5.2728351519        3.2237898534
 C        -7.6335376786        6.6621188294        1.4143149397
 C        -8.7462256850        6.4866631375        0.4135521936
 O        -9.4553783283        7.3965990915        0.0836134456
 C        -9.0814381480        5.0124071240        0.0238438178
 C        -9.8527482536        4.8134869856       -1.2848555187
 C        -9.9346390902        3.4149116535       -1.9820684567
 O        -9.7680295304        2.4389028836       -1.2642242554
 C       -10.3220025777        3.2925019894       -3.4777446834
 C        -9.1675484547        2.3828716197       -4.0627214132
 O        -9.3746557145        1.1639849773       -3.9142763306
 C        -8.0620166976        2.8853554685       -4.9461636492
 C        -7.1406778615        1.6832573124       -5.3742394892
 C        -6.1779033104        1.2136263537       -4.2319778721
 O        -5.8724093419        1.8906278026       -3.2849421052
 C        -5.4762297018       -0.2139471311       -4.3192285453
 C        -6.2035005148       -1.0622748128       -3.2429795883
 O        -7.4153615475       -1.2979515441       -3.3253999026
 C        -5.2081345337       -1.6477185212       -2.1394519289
 C        -5.8814450816       -2.1864727920       -0.8712327096
 C        -6.8086488179       -1.1117829372       -0.2422240707
 O        -6.9181685702        0.0015664668       -0.7897151092
 C        -7.7002034141       -1.5043886037        0.9302598305
 C        -9.3262816891       -1.5419529612        0.5711803405
 O        -9.8426039556       -1.0017423363       -0.3547354727
 C       -10.2451249178       -2.1768981488        1.7114448108
 C        -7.3411912376       -2.8104269413        1.6390775745
 C        -7.5215702410       -0.2888325708        1.9363653166
 C        -5.9393710406       -0.8445785656       -5.6966628931
 C        -3.9200501536       -0.1198914371       -4.2287557146
 C       -11.6918729477        2.6349277412       -3.7544620075
 C       -10.2940719481        4.6719928371       -4.1961838748
 C        -7.1362505052        8.1194049326        1.4271524135
 C        -6.3954564496        5.8065064111        1.1771468792
 C       -13.3532781695        8.6266904198        6.2360304685
 C       -12.1944712041        6.4520855240        6.9368909525
 C       -13.4422524384        8.1399413991       -0.3734331246
 C       -15.7551603536        7.4777042187       -1.1922325263
 H       -14.4571703718        3.6161101158       -1.2483991668
 H       -15.6822053856        4.8450145059       -1.6339144450
 H       -15.6657098883        4.3244072449       -0.1190726720
 H       -13.1584047849        6.2947950769        1.9125406709
 H       -14.4202446923        5.3960883074        2.6820841241
 H       -15.0716497942        7.2758149143        4.0606225586
 H       -13.8051057536        8.2628042806        3.4735378577
 H       -10.3210820937        5.9438624216        4.5194503121
 H        -9.3701403776        6.9414971717        5.6002487425
 H        -8.3285238237        8.1503896884        3.9124948950
 H        -9.7268819555        8.1942850569        2.9630809216
 H        -9.6166250238        4.5841954551        0.8753497668
 H        -8.1921402030        4.3890759655        0.0541689689
 H        -9.4205019578        5.4731180255       -2.1059923032
 H       -10.8799021023        5.1877668461       -1.2815993690
 H        -7.3803521732        3.5926768687       -4.4174833244
 H        -8.3749030595        3.3905463239       -5.8108150237
 H        -6.4028573457        1.9708895115       -6.2267217476
 H        -7.8170119816        0.9617149664       -5.6771636748
 H        -4.5122570790       -0.9015344791       -1.8584860463
 H        -4.6271264304       -2.4468441971       -2.6251425046
 H        -5.1482691911       -2.6442395215       -0.1712116003
 H        -6.6403830452       -2.8988920364       -1.1159296464
 H        -9.8392817077       -1.8797637792        2.7456927875
 H       -10.1750387591       -3.2178334514        1.6491648296
 H       -11.2680735023       -1.9351194918        1.6668625865
 H        -7.5698297692       -3.7250900383        1.1731785462
 H        -7.9576118026       -2.8289110098        2.5319235058
 H        -6.3371091850       -2.8618161050        2.1063227418
 H        -7.8851681400        0.6878821443        1.6685947649
 H        -6.4876867247       -0.1809629264        2.0839512170
 H        -8.0772138159       -0.5565110508        2.9160207936
 H        -5.9031269546       -0.1249376014       -6.4893735637
 H        -6.8681764107       -1.3594838783       -5.4927286504
 H        -5.1335443432       -1.5147112134       -5.8575461222
 H        -3.3410808743       -1.0393372344       -4.1645485301
 H        -3.5959102828        0.5775031140       -3.4040834428
 H        -3.7020460695        0.4041251109       -5.1423890113
 H       -11.9191133842        2.5949530537       -4.8054891575
 H       -12.4269291958        3.3831852996       -3.4064524033
 H       -11.8862326242        1.6941166041       -3.2929703553
 H       -10.6982888669        4.5972020896       -5.2357735105
 H        -9.2783072962        5.1166445282       -4.2154229775
 H       -10.9131840853        5.2966990608       -3.6390690526
 H        -6.6874951365        8.4209695891        2.3702147129
 H        -7.9126420250        8.8194489467        1.2374567734
 H        -6.4438091819        8.2983174562        0.6777318367
 H        -5.9051216039        5.9870518759        0.2255184720
 H        -6.6172227564        4.7358875024        1.2577510570
 H        -5.7254686851        5.9836645505        1.9694525642
 H       -12.9066744421        8.9796188503        7.2135597223
 H       -14.3755222702        8.3814029101        6.3146737935
 H       -13.2544560082        9.4859430040        5.5904644652
 H       -12.9991198568        6.7724417386        7.6179831632
 H       -11.2657028944        6.5349877286        7.4634005191
 H       -12.4434781992        5.4130476124        6.5873466908
 H       -12.7245245031        7.9272947067        0.4561284252
 H       -13.8148428084        9.1174673420       -0.3279955718
 H       -12.9195622769        7.8922144662       -1.3289399215
 H       -15.7622651946        8.5963107971       -1.3418914148
 H       -16.6952881218        7.3745042194       -0.6723124135
 H       -15.8097837713        6.9780995222       -2.1075968466
 Na       -8.7208255677        0.4725838652       -1.9369488312
