117

 C       -15.1016498129        4.7364039863       -0.9387420605
 C       -14.1732236897        5.9262584017       -0.9232148535
 O       -13.0471639459        5.8855604538       -1.5042529539
 C       -14.6722798226        7.2646161667       -0.3358786014
 C       -15.2481954465        7.1857603776        1.1572222554
 O       -16.2670609642        7.7157989877        1.5365567697
 C       -14.3378132727        6.4468401955        2.1821963206
 C       -13.8943081883        7.4166817459        3.2550077467
 C       -13.1352672671        6.6791750192        4.3902693200
 O       -13.0681126898        5.4927551942        4.4627685807
 C       -12.4240795398        7.5874087535        5.4567359906
 C       -11.0306790560        8.1088333686        4.7117882393
 O       -10.9703557773        9.2438836052        4.3417865693
 C        -9.9803248723        7.0618786237        4.2519454149
 C        -9.0196550679        7.5984382994        3.2608737365
 C        -8.2903317742        6.4628502665        2.5847348538
 O        -8.4507389780        5.2980356527        2.9297323079
 C        -7.5769769603        6.7264478843        1.2868051317
 C        -8.6740561218        6.6013794229        0.2558112534
 O        -9.3484454662        7.5912593141       -0.0722050423
 C        -8.7404825763        5.2334570160       -0.4215205766
 C        -9.6835318357        4.9576759997       -1.7201978434
 C        -9.5196583634        3.5373472916       -2.2483692483
 O        -9.1163971655        2.6507920364       -1.5662686845
 C       -10.1328247891        3.1830539825       -3.6376651595
 C        -9.1467028329        2.1712409703       -4.3843636923
 O        -9.2610565752        0.9567448141       -4.1124683315
 C        -8.1520057510        2.7035901313       -5.4000776509
 C        -6.9741614194        1.7075859744       -5.6049040971
 C        -6.6340671223        0.9320319606       -4.2923102990
 O        -6.7914132462        1.5562045369       -3.2906217632
 C        -5.8375904192       -0.4811042743       -4.3275188729
 C        -6.4095425714       -1.2963487975       -3.1573050312
 O        -7.6411557971       -1.5451744002       -3.1023387955
 C        -5.5398223492       -1.6536752581       -2.0324631190
 C        -6.3365811558       -2.2549503226       -0.8903928262
 C        -6.8162868420       -1.2664804932        0.2494841073
 O        -6.7578018053       -0.0557178561        0.1254109551
 C        -7.6030740186       -1.8546175068        1.5060091599
 C        -9.1565583095       -1.6833341369        1.1725446509
 O        -9.5409363741       -0.9863986785        0.2655064814
 C       -10.1235578144       -2.5188402986        1.9976071984
 C        -7.2649571632       -3.3024800454        1.8104791125
 C        -7.3404573138       -0.9395002059        2.7994855241
 C        -6.2019812980       -1.2790977236       -5.6488275812
 C        -4.3691021788       -0.1322254579       -4.1666452264
 C       -11.4262816791        2.4633325236       -3.2780384837
 C       -10.4220340545        4.4200247938       -4.5248807366
 C        -6.9555572507        8.1798179891        1.1982420697
 C        -6.3959990280        5.7007292281        1.1726945759
 C       -13.2859348697        8.8244840278        5.8710582908
 C       -12.0086674476        6.7638687165        6.7622070124
 C       -13.5371303128        8.3258466600       -0.2046762516
 C       -15.7816672237        7.8333931699       -1.2278986433
 H       -15.4669352732        4.5510313197        0.0824554280
 H       -14.5235416392        3.8201536585       -1.2915628702
 H       -15.9838175596        5.0828101064       -1.5207359721
 H       -13.4922493453        5.9587467550        1.5982291268
 H       -14.8885992728        5.7097110640        2.6908640279
 H       -14.8268292993        7.9453506873        3.6187592192
 H       -13.1984951220        8.1540994756        2.8642393699
 H       -10.4795538220        6.1743297418        3.8139647884
 H        -9.4794834174        6.5742229088        5.1439474081
 H        -8.3325864030        8.2012900895        3.8292155982
 H        -9.4976823658        8.2304848197        2.5300311783
 H        -8.9734325291        4.5051826685        0.3578548406
 H        -7.7175846483        5.0094927294       -0.8018050454
 H        -9.2595159543        5.6169968276       -2.5505907836
 H       -10.6754839312        5.1485066056       -1.4795160719
 H        -7.7098070672        3.6918173681       -5.0767612413
 H        -8.6696190987        2.8387388294       -6.3582519486
 H        -6.1063104576        2.1503746763       -6.0908205117
 H        -7.4005855097        1.0586707213       -6.3527025930
 H        -4.8192243133       -0.9031401128       -1.6465870994
 H        -4.8630682020       -2.4817019301       -2.5136195801
 H        -5.6539401688       -2.9434101897       -0.3354551482
 H        -7.1901861146       -2.8283250011       -1.1445906460
 H        -9.8268143810       -2.7908256483        2.9984297876
 H       -10.2750978551       -3.4688036920        1.4436999218
 H       -11.1065231226       -2.0021363019        2.0095750809
 H        -7.5304978793       -3.9983499602        1.0198896341
 H        -7.9125436925       -3.5900511906        2.6724502647
 H        -6.2361603555       -3.6077312764        2.0030844671
 H        -7.5269663687        0.1123495359        2.5283839277
 H        -6.4118818971       -1.0758830189        3.2928152904
 H        -7.9860719258       -1.2401867903        3.5684211713
 H        -5.4845752463       -1.0816015688       -6.4732668582
 H        -7.2466909580       -0.9400980589       -5.8573646606
 H        -6.0883830567       -2.3090571651       -5.2482732072
 H        -3.6778716655       -0.9190592769       -4.0993831285
 H        -4.2284747923        0.4757161141       -3.2145357690
 H        -4.0403438393        0.4965599650       -4.9866080127
 H       -12.0789240650        2.2333414777       -4.1452520518
 H       -11.9530474369        3.0363317615       -2.5145082142
 H       -11.2524147432        1.5221593043       -2.8131707427
 H       -10.7230183132        4.1445579204       -5.5645954474
 H        -9.5558765098        5.0820633279       -4.6135091103
 H       -11.2542811413        4.9698503769       -4.1521979206
 H        -6.1406680108        8.3857405952        1.9817505688
 H        -7.7080756306        9.0092074379        1.2897608333
 H        -6.4469342572        8.3143630738        0.2369461844
 H        -6.1374856464        5.5468285345        0.0826029672
 H        -6.6157035843        4.7287412917        1.6530111352
 H        -5.4523108945        6.1534485444        1.6815264068
 H       -13.0387989632        9.1880862826        6.8840761536
 H       -14.3328032347        8.4531839443        5.9476649188
 H       -13.1790930805        9.6062292776        5.1231006742
 H       -12.9154433264        6.7587273974        7.3621979933
 H       -11.1880758545        7.2339479744        7.3303350066
 H       -11.8963105803        5.7121370772        6.5002829310
 H       -12.7822824627        7.9657714520        0.5444022262
 H       -13.9535614574        9.2558091246        0.1275219055
 H       -13.0466798722        8.4759450809       -1.1438252380
 H       -16.7229021867        7.4999935983       -0.9684802250
 H       -15.5736351327        7.4742633923       -2.2822891067
 H       -15.9472051369        8.9394997365       -1.1914821115
 Na       -8.3450170718        0.3941311352       -1.5450298716
