117

 C       -15.2839527450        4.9316913186       -1.3311524109
 C       -14.2023641984        5.9921775388       -0.9843637568
 O       -13.0091573647        5.6205918333       -1.0721552818
 C       -14.6851183771        7.4012056789       -0.4435101938
 C       -15.1889413264        7.2527985211        1.0912551245
 O       -16.3145464087        7.6305406778        1.3649209582
 C       -14.1638703658        6.5546763004        2.0895262574
 C       -13.9406933006        7.5710027547        3.2679787449
 C       -13.2164777546        6.8196671599        4.4586887888
 O       -13.2171917445        5.6301256193        4.5324051678
 C       -12.3378039291        7.7010101372        5.4674263645
 C       -11.0972333283        8.2285667053        4.6005158978
 O       -10.9771847202        9.4145001938        4.4444939025
 C       -10.0568298537        7.1818385551        4.2039461565
 C        -9.1348953381        7.6386632011        3.0091016149
 C        -8.3486334083        6.4649314832        2.4423369894
 O        -8.4273245649        5.2831911028        2.7266590811
 C        -7.5188349534        6.7940954833        1.1821244620
 C        -8.4006433024        6.5436038825        0.0095985666
 O        -9.2203910641        7.3879889294       -0.4376846181
 C        -8.3072935328        5.2488569753       -0.6930087136
 C        -9.5161397625        5.0745306308       -1.6809886932
 C        -9.6191423948        3.6282597185       -2.0946262573
 O        -8.9011693888        2.8075198842       -1.5002449688
 C       -10.3005064946        3.2547961228       -3.4646527385
 C        -9.3139717400        2.1262106963       -4.1040645275
 O        -9.4434750945        0.9410954663       -3.8938601160
 C        -8.2488011914        2.5875698428       -5.0212389995
 C        -7.2593205897        1.4509110761       -5.4239618797
 C        -6.7290648451        0.7434736913       -4.1761857192
 O        -6.7187646721        1.2978242798       -3.0976228756
 C        -5.9637130545       -0.5855536702       -4.3937737121
 C        -6.4131441156       -1.5530101797       -3.1309912801
 O        -7.5650861419       -2.0002741815       -3.0095245485
 C        -5.4475950158       -1.4846390742       -1.8915336546
 C        -6.0290570511       -2.2856123204       -0.7346606521
 C        -6.7890849670       -1.3627441322        0.2656153846
 O        -6.8901675137       -0.1370770321        0.1195557147
 C        -7.5821155937       -1.9477965628        1.4757100618
 C        -9.1346927691       -1.6850193773        1.1447425192
 O        -9.5421422537       -0.9464616550        0.3070112116
 C       -10.1659439218       -2.4365722044        2.0057987155
 C        -7.3682786988       -3.4699927012        1.7859205428
 C        -7.3242543605       -0.9879608340        2.7094757088
 C        -6.1362603532       -1.4006831245       -5.6813105471
 C        -4.4384901600       -0.2923032105       -4.2609625814
 C       -11.6542571246        2.5486479539       -3.1443441396
 C       -10.5463456923        4.3941633167       -4.4570039340
 C        -7.0043150257        8.2566617743        1.2851072824
 C        -6.2289025727        5.8586179483        1.2393341388
 C       -13.1073676049        8.9379900565        6.1737387161
 C       -11.8538074583        6.7468029472        6.6264479967
 C       -13.4507531666        8.3698118111       -0.5832857965
 C       -15.8313888136        7.9945157580       -1.3412807508
 H       -16.2659222803        5.3413900576       -1.1144624239
 H       -15.0490435327        4.0050618362       -0.8367313099
 H       -15.3001265879        4.9070510935       -2.3898833532
 H       -13.2740092397        6.1688282357        1.5974712994
 H       -14.7239144783        5.6911535850        2.4611839887
 H       -14.8833205499        8.0336437591        3.5846428441
 H       -13.2757653607        8.3197874712        2.8713628037
 H       -10.5359455538        6.2236622906        3.9447853570
 H        -9.4756297229        6.9831214918        5.0765971104
 H        -8.3777235811        8.3654808592        3.4843001950
 H        -9.6327726007        8.1500046127        2.1861003531
 H        -8.3287275340        4.4517453310        0.0324997145
 H        -7.4099219422        5.2217789008       -1.3178015683
 H        -9.2614330320        5.6378931912       -2.5580811939
 H       -10.4603366591        5.3832641329       -1.2213134911
 H        -7.6179038859        3.3706034145       -4.5115812232
 H        -8.7226621608        3.0631423160       -5.8545370224
 H        -6.4093461625        1.8944897771       -6.0440028083
 H        -7.6783334168        0.8499623914       -6.1317075312
 H        -5.2117293999       -0.4784409116       -1.6978631941
 H        -4.5244144781       -1.9807608698       -2.1457481986
 H        -5.2928695095       -2.8211708034       -0.1012369185
 H        -6.6201041685       -3.1641629307       -1.1361955491
 H        -9.7722579247       -2.5856691879        3.0371691437
 H       -10.2157125820       -3.4296701427        1.6533463471
 H       -11.1449070022       -1.9820850245        2.0241273519
 H        -7.6828446778       -4.2267860610        1.0965464684
 H        -7.8526900091       -3.7292189440        2.7310385346
 H        -6.2792788227       -3.6169039688        2.0188127166
 H        -7.3219561605        0.0955564668        2.3349816641
 H        -6.3874564981       -1.2019866251        3.1884770080
 H        -8.0585795943       -1.1476635540        3.5563934790
 H        -6.2998281586       -0.7097911285       -6.4267595469
 H        -7.0470686490       -1.9406501417       -5.4957530065
 H        -5.2795550951       -1.9351578212       -5.9185844410
 H        -3.8908192425       -1.2074808872       -4.1554303049
 H        -4.1413988842        0.2428485610       -3.2827863138
 H        -3.9376986400        0.2107917286       -5.0662016140
 H       -12.0952993630        2.3333406705       -4.1209321147
 H       -12.4015424156        3.1706377337       -2.5991049841
 H       -11.6159021473        1.6240614234       -2.6224414299
 H       -10.9914286527        3.9969065511       -5.3979787256
 H        -9.5932025730        4.7937674250       -4.8396245545
 H       -11.1438309628        5.1567518017       -4.0996183004
 H        -6.6052209118        8.2670988589        2.3015770778
 H        -7.7125339000        9.0453423302        1.2307466980
 H        -6.2595969029        8.4929722953        0.6206684788
 H        -5.4392723484        6.2331061561        0.6073322205
 H        -6.4171293345        4.8716393886        0.9457938344
 H        -5.8353712159        6.0557223768        2.2244735915
 H       -12.3198616820        9.6766740566        6.4655478988
 H       -13.7778071326        8.6072578249        6.9262699519
 H       -13.6452854251        9.4520082941        5.4026074051
 H       -12.6162446461        6.3742577110        7.3348580297
 H       -11.1990784555        7.4144022990        7.1706095683
 H       -11.1197811258        6.0138319673        6.2240623605
 H       -12.7091840496        8.0983000927        0.2271508648
 H       -13.6820651498        9.3925277790       -0.4306212848
 H       -12.9155307720        8.2340944267       -1.5542921575
 H       -16.1876115370        7.2467310338       -2.0020918820
 H       -15.4861495754        8.8175491312       -1.9889910943
 H       -16.6969076708        8.3334172031       -0.7925073289
 Na       -8.4892491917        0.4849047252       -1.5537831274
