117

 C       -15.3778500557        5.0241548841       -1.4792475807
 C       -14.2618287298        5.9465999128       -0.9443674672
 O       -13.1549448983        5.5620923986       -0.7374881320
 C       -14.6148951009        7.4680991448       -0.5229763391
 C       -15.0246782099        7.3384446324        0.9798818457
 O       -16.1896788933        7.5076657343        1.2557353486
 C       -14.0018451130        6.8455675591        2.0375682753
 C       -13.9433812383        7.6714719063        3.2688503859
 C       -13.2146621388        6.9373704691        4.4587676839
 O       -13.3420604643        5.7121216462        4.5806781946
 C       -12.3077397012        7.7272789817        5.4664511413
 C       -11.0749101303        8.2125735443        4.6602970255
 O       -10.9572436385        9.3965099838        4.3398294677
 C       -10.1049078506        7.1273497477        4.1400956926
 C        -9.3410808139        7.6206385326        2.9507159091
 C        -8.4017566996        6.5763727786        2.3873179002
 O        -8.5138032111        5.4191414199        2.7021155991
 C        -7.2593959393        6.9934549989        1.1732399612
 C        -8.2193008025        6.6945551051       -0.0941822738
 O        -8.9549755026        7.5658094718       -0.4077859857
 C        -8.1925293664        5.2686527032       -0.7637701687
 C        -9.3411897090        4.9880981142       -1.8069770850
 C        -9.5376997035        3.5101640590       -2.1098698910
 O        -9.0979045558        2.6053636958       -1.4066738069
 C       -10.3759321230        3.2172595487       -3.3971666925
 C        -9.5317800910        2.0706065003       -4.0232059457
 O        -9.6670573268        0.8923099762       -3.6551321637
 C        -8.2792368134        2.4190106074       -4.8688812736
 C        -7.5326044060        1.1739000588       -5.2748087675
 C        -6.6617214197        0.6868489808       -4.1484639794
 O        -6.5419345199        1.3009212027       -3.0686965741
 C        -5.8569585064       -0.6651161984       -4.3257051114
 C        -6.2786136069       -1.5391263438       -3.0338829962
 O        -7.3187689562       -2.0833353039       -2.9633118499
 C        -5.3180862627       -1.6112163632       -1.8172932027
 C        -5.9403341399       -2.3510297405       -0.5929927978
 C        -6.9096866655       -1.3873190119        0.1583718030
 O        -6.8659731265       -0.2014487911       -0.0703915580
 C        -7.6371582252       -1.8787682390        1.4472468755
 C        -9.2072142866       -1.5924249120        1.1021017547
 O        -9.4968079274       -0.8956013639        0.1315012452
 C       -10.2346241414       -2.3397957124        1.8973321264
 C        -7.3701340533       -3.3730154364        1.7491478552
 C        -7.2920835217       -1.0907176083        2.7235299072
 C        -6.4303897434       -1.4731506109       -5.5055079782
 C        -4.3087847040       -0.4274110313       -4.4072965392
 C       -11.7045738417        2.5720733694       -2.9825997675
 C       -10.6346374221        4.4338163481       -4.3138942708
 C        -6.9143354267        8.4319687297        1.1673477569
 C        -6.0915573324        6.0721123655        1.2539837569
 C       -13.0949657733        8.9298922104        6.0444267258
 C       -11.9186198995        6.7316123115        6.5672945699
 C       -13.3291642960        8.3112672918       -0.5634662676
 C       -15.8099760690        8.0422485602       -1.4432507663
 H       -16.3748064443        5.5487337263       -1.4835246098
 H       -15.2910005592        4.2262839675       -0.7422185391
 H       -15.1968320462        4.6552746743       -2.5379921855
 H       -13.0405019510        6.8005958699        1.5370369197
 H       -14.2376555069        5.8108112870        2.3356642725
 H       -14.9492707189        7.7638290938        3.7048049183
 H       -13.5600401242        8.6824072746        3.0061271217
 H       -10.6290172496        6.1941316667        3.8555891685
 H        -9.3708665364        6.8942726457        4.9876139719
 H        -8.8864677437        8.5307988559        3.1765411301
 H       -10.1030777893        7.8253305757        2.1693703640
 H        -8.2875741212        4.4625256585       -0.0008247487
 H        -7.2432054254        5.2080612713       -1.2935335309
 H        -9.1599304785        5.5646900369       -2.7208377440
 H       -10.3201270124        5.2575194147       -1.3543980385
 H        -7.6969913449        3.0493268998       -4.2081504854
 H        -8.4932300406        3.0340017089       -5.7966994950
 H        -6.9196184014        1.3666070573       -6.1197560976
 H        -8.2624402401        0.4569847849       -5.7913931334
 H        -5.2241186322       -0.4971263136       -1.5099084827
 H        -4.2692046780       -1.9679721693       -1.9566326119
 H        -5.2145384121       -2.7138010236        0.1459007561
 H        -6.3954786305       -3.2771080283       -0.8751547550
 H       -10.1169369987       -2.2183527183        2.9884292395
 H       -10.1570642544       -3.4369465013        1.6997828001
 H       -11.1965213776       -1.9698613243        1.5802574270
 H        -7.6454307893       -3.9547238750        0.8190286021
 H        -7.9099217083       -3.9098059790        2.5298136361
 H        -6.3110312774       -3.4930599268        1.9965341740
 H        -7.5745529146       -0.0910114786        2.6811509212
 H        -6.1816990170       -1.1013061309        2.7853335108
 H        -7.7033355484       -1.5623667464        3.6281000292
 H        -6.5159180731       -0.8975520478       -6.4805902498
 H        -7.3654913328       -1.8886859900       -5.0952823786
 H        -5.6623466971       -2.2999773557       -5.6307237297
 H        -3.6207420658       -1.3054375108       -4.4089194055
 H        -3.9077298458        0.1685262851       -3.6636857833
 H        -4.0600927767        0.0865952856       -5.3590702083
 H       -12.1881652292        1.9047227515       -3.6662518432
 H       -12.4448286243        3.3076908618       -2.7419610113
 H       -11.5264235037        2.0149193328       -2.0395930096
 H       -11.0863211786        4.1568772420       -5.2284000324
 H        -9.7616746070        4.9830818878       -4.6120786888
 H       -11.3091869362        5.1475917159       -3.7544093801
 H        -6.6994703498        8.8040490682        2.1584060825
 H        -7.7796919817        9.0342172489        0.8159544883
 H        -6.0748262545        8.6580811856        0.4183342660
 H        -5.3419269490        6.1558616448        0.4212789412
 H        -6.5463083816        5.0227475552        1.1702757551
 H        -5.5681888470        6.3808997022        2.1542964739
 H       -12.2971031527        9.5263548503        6.4232415852
 H       -13.8435518297        8.5835194342        6.7900194593
 H       -13.6120019599        9.5526164110        5.2794274476
 H       -12.8521124598        6.4351091574        7.0407615370
 H       -11.2527095605        7.1245355947        7.3607537347
 H       -11.3631281470        5.9403623175        6.0891800472
 H       -12.4794488496        7.7966023088       -0.2059413204
 H       -13.4659650480        9.1587594385        0.1695028612
 H       -13.1234311947        8.7730135349       -1.5262904380
 H       -15.9263669672        7.5632368696       -2.4981857959
 H       -15.7457932728        9.0981851519       -1.5381047815
 H       -16.7273718791        7.9497123733       -0.8622996247
 Na       -8.7296172682        0.3258900311       -1.5349629492
