117

 C       -14.9979882252        4.6897237202       -0.5700814690
 C       -14.1364314073        5.9820381702       -0.8832899367
 O       -13.1222002125        5.9274333180       -1.4868754757
 C       -14.6581623843        7.3266777121       -0.2931293447
 C       -15.2306881836        7.0754240092        1.1618245464
 O       -16.2774147155        7.5777725005        1.4859619043
 C       -14.3165305132        6.2912741162        2.1497937709
 C       -13.9653492094        7.2817301670        3.2665639994
 C       -13.1538406650        6.6079022642        4.3927850269
 O       -12.9249591276        5.4085276158        4.4612593904
 C       -12.4732512018        7.5561303767        5.4810618047
 C       -11.1286056872        8.0710140668        4.7642128436
 O       -11.0615558203        9.2128513101        4.3403920021
 C       -10.0087833538        6.9859404864        4.5180087855
 C        -9.0023997265        7.5446321812        3.4221406683
 C        -8.3202628181        6.4254655560        2.6407447218
 O        -8.2866953914        5.2761285498        3.0182120558
 C        -7.5389479852        6.7161096767        1.2527952397
 C        -8.7108962982        6.4658885321        0.2018278220
 O        -9.4459462124        7.3377425938       -0.0806837162
 C        -8.9645109650        5.0460340580       -0.2544117339
 C        -9.5864842290        4.9593580731       -1.6665415615
 C        -9.6617289780        3.5119577766       -2.1811813189
 O        -9.0880376665        2.6661591319       -1.4709049955
 C       -10.1707097934        3.1547406376       -3.6651787279
 C        -9.1640635749        2.1554058051       -4.3929153368
 O        -9.1824030608        0.9884191075       -4.1625121827
 C        -8.1436722208        2.8045110428       -5.3587592575
 C        -7.0779716518        1.6618152380       -5.6368787604
 C        -6.4587818786        1.1179309163       -4.3479646029
 O        -6.4974053726        1.7999262905       -3.3146753086
 C        -5.8014578898       -0.3439894029       -4.2437981974
 C        -6.4880838205       -1.0053399119       -2.9925045716
 O        -7.6632895785       -1.1148084619       -2.9723607374
 C        -5.6291417731       -1.6895459835       -1.9711051839
 C        -6.3465832437       -2.3594964901       -0.7903434801
 C        -6.7447043063       -1.3418671400        0.2108791192
 O        -6.6431115448       -0.1563328086       -0.0316912090
 C        -7.4910551719       -1.8074802722        1.4298914245
 C        -9.1202937011       -1.6311195880        0.9902522055
 O        -9.5395317710       -0.9221275594        0.0767986697
 C       -10.1994246913       -2.3600700158        1.8141270234
 C        -7.2531679164       -3.3116393176        1.8856810380
 C        -7.3168902743       -0.8167478819        2.6088125107
 C        -6.1682009700       -1.1327164241       -5.5803384560
 C        -4.2511701901       -0.2200422548       -4.2601890348
 C       -11.4991968713        2.3693153342       -3.5945855906
 C       -10.3889064829        4.4739452386       -4.4945435480
 C        -6.9629966109        8.1298245016        1.2200451982
 C        -6.3312697842        5.7534095916        1.0787620424
 C       -13.2996709920        8.8892688774        5.7679220298
 C       -12.1632356395        6.6874814124        6.7442294030
 C       -13.4854485695        8.2774704067       -0.2416873068
 C       -15.7879451325        7.8564589996       -1.2245211761
 H       -14.6471985366        4.3261797496        0.3790378457
 H       -14.7400836319        3.9530817981       -1.3278121501
 H       -16.0498101352        4.9239566452       -0.5016001499
 H       -13.4797613135        5.8818166295        1.6608354794
 H       -14.9272031114        5.4703951701        2.6314883267
 H       -14.8651091074        7.7150271470        3.6480529160
 H       -13.3095515886        8.1107597518        2.9262143092
 H       -10.3734192719        5.9848495959        4.2656070643
 H        -9.5689267794        6.7890582836        5.4738173056
 H        -8.1565908761        8.0712815433        3.9475728554
 H        -9.5155573375        8.3065675765        2.7731552120
 H        -9.5861755520        4.5334089939        0.4928738110
 H        -8.0392522937        4.4976396993       -0.3061337754
 H        -8.9636880208        5.4748058454       -2.3283251748
 H       -10.6138965077        5.4464385891       -1.5872121990
 H        -7.6201155617        3.6420182486       -5.0047677517
 H        -8.5955326778        3.0345157344       -6.3423813814
 H        -6.2076872987        2.0904471601       -6.1313045113
 H        -7.6562942412        0.9732218260       -6.3381980593
 H        -4.9607445037       -0.9087088837       -1.6209243699
 H        -5.0164332939       -2.3848011679       -2.4287371028
 H        -5.7643120551       -3.1435958000       -0.3130439852
 H        -7.3408897316       -2.8319531778       -1.1298153366
 H       -10.0089799105       -2.1881918988        2.8534275382
 H       -10.2014818623       -3.4423554909        1.6540699530
 H       -11.2008567233       -1.9966943908        1.5857758549
 H        -7.4275024795       -4.0578963492        1.0951000978
 H        -7.6731655017       -3.6210004821        2.8165034601
 H        -6.1855634754       -3.4981573167        1.9225485775
 H        -7.7538209439        0.1585193331        2.3930703452
 H        -6.2043864211       -0.6654499481        2.8411465995
 H        -7.6313522823       -1.2310944217        3.5880348013
 H        -6.0424487253       -0.3352345650       -6.2500167673
 H        -7.1703881673       -1.3004718462       -5.5283176291
 H        -5.5123136178       -1.9389799223       -5.7153887630
 H        -3.8235020086       -1.2802310733       -4.1477604008
 H        -3.8308043266        0.3374661209       -3.4776879833
 H        -3.8476901000        0.1971574719       -5.2122258625
 H       -11.6864152240        1.7556567474       -4.4395863083
 H       -12.3389191593        2.9523531016       -3.2883681382
 H       -11.3888599747        1.6368450126       -2.7667294537
 H       -10.9334348169        4.3642085886       -5.3943721374
 H        -9.4827186288        5.0450976977       -4.6212940807
 H       -11.0413620420        5.1480551889       -3.8625649888
 H        -6.5738593134        8.3961977018        2.1459102136
 H        -7.7011192682        8.8592357213        0.9756028087
 H        -6.0862742902        8.2349942225        0.5602375629
 H        -5.7795480357        6.0347209570        0.1908431436
 H        -6.6463183552        4.6759830610        1.0704512634
 H        -5.7172508228        5.7579075747        1.9697511872
 H       -12.9403572562        9.2772193282        6.7044810355
 H       -14.3122211365        8.6011244175        6.0494635099
 H       -13.2316011717        9.6356991817        4.9516027951
 H       -13.0634056676        6.3519163194        7.2847334632
 H       -11.5350102763        7.3425596272        7.3646796192
 H       -11.7322416048        5.7272917694        6.4341269224
 H       -12.6253947139        7.7767069642        0.1342025379
 H       -13.7974927537        9.1208780749        0.4417055809
 H       -13.2632488528        8.7083211432       -1.2386141985
 H       -16.7735125159        8.0215573193       -0.6821832192
 H       -15.9220838136        7.3113286343       -2.1057746400
 H       -15.5999891043        8.8739884687       -1.4452371770
 Na       -8.5852918067        0.3896159870       -1.7018427640
