117

 C       -14.9215491096        4.6770128774       -0.4402419375
 C       -14.1512693998        5.8996101465       -0.8346920213
 O       -13.1190157753        5.7480834914       -1.5109247068
 C       -14.6300414454        7.3556427496       -0.2872918420
 C       -15.2027407215        7.0248615781        1.1615360526
 O       -16.3496403790        7.2970792351        1.4393306936
 C       -14.2822628710        6.4001790542        2.2115881050
 C       -14.0262185522        7.2901308693        3.3768161205
 C       -13.0732559294        6.5591888607        4.3998975649
 O       -12.8613155767        5.3570353673        4.3294086686
 C       -12.3883283426        7.5044325111        5.4596826026
 C       -11.1041293713        7.9913814517        4.6781971106
 O       -11.0053503712        9.1350514711        4.2466127305
 C        -9.9493203988        7.0084825180        4.6108440552
 C        -8.9958017999        7.3644958815        3.4954477107
 C        -8.2538151441        6.2602422769        2.7675520705
 O        -8.2505340211        5.1590989316        3.2625739145
 C        -7.6020734064        6.6708452140        1.3890219392
 C        -8.7050446947        6.3246216993        0.2700946944
 O        -9.4320613925        7.2290876017       -0.1963820938
 C        -9.0645126265        4.8640488770       -0.1825540007
 C        -9.6012792765        4.9139490895       -1.6097871895
 C        -9.6791207772        3.4640431005       -2.1384855270
 O        -9.3803992695        2.5298976413       -1.4142767323
 C       -10.1705228987        3.2367942693       -3.7054106457
 C        -9.1552282389        2.3420417206       -4.3030562987
 O        -9.2003300931        1.1144514076       -3.9863029388
 C        -8.0581303765        2.8689299798       -5.1610982268
 C        -7.0420476717        1.7787385903       -5.5848127602
 C        -6.3652815909        1.2281965617       -4.3183666749
 O        -6.1151057321        1.9044432668       -3.3691097036
 C        -5.8063991629       -0.2821886568       -4.3472664889
 C        -6.3133364219       -0.9377751200       -3.0675981269
 O        -7.5471115813       -1.0359479771       -2.9295286724
 C        -5.4148087114       -1.7707432478       -2.1347579266
 C        -6.2003230952       -2.4072351204       -0.9225998255
 C        -6.8270262455       -1.3185145569        0.0062093304
 O        -6.5759078965       -0.1308229480       -0.2614433963
 C        -7.5983525344       -1.7008077203        1.2671543838
 C        -9.2009647486       -1.5636784081        0.8693952659
 O        -9.4955163169       -0.9041591853       -0.0795667568
 C       -10.2203781238       -2.2460952117        1.7628676314
 C        -7.3427657402       -3.1015539648        1.8355040104
 C        -7.3729444790       -0.6979738026        2.3911992648
 C        -6.1660054614       -1.2216465172       -5.5200752753
 C        -4.2261878631       -0.1111778847       -4.1574896069
 C       -11.5244470879        2.5118637555       -3.4685998698
 C       -10.4566606094        4.5704964563       -4.4978340985
 C        -7.4208717693        8.1435415252        1.2350721515
 C        -6.3795450975        5.7618665720        1.1807440476
 C       -13.3977734128        8.6284981206        5.8125000445
 C       -12.1256872368        6.7738731222        6.7733993823
 C       -13.4276033097        8.3302450251       -0.2396970805
 C       -15.7675266222        7.8374653497       -1.2166863053
 H       -14.1778200811        3.9812054574        0.0335385062
 H       -15.3416215897        4.2783165904       -1.3563317169
 H       -15.7794674790        4.9415819700        0.1945031850
 H       -13.2339010651        6.2522894372        1.7761562246
 H       -14.6929507125        5.4477279741        2.4522131102
 H       -14.9340350719        7.4539091054        4.0242938201
 H       -13.6962486931        8.2530601857        3.0476157545
 H       -10.4128702644        6.0342257473        4.4626203782
 H        -9.3761470392        6.8576282571        5.5478207732
 H        -8.3639213587        8.1444725355        3.8554219627
 H        -9.5953933418        7.8224194618        2.7349099668
 H        -9.8737909615        4.5414567293        0.4894286256
 H        -8.3029697612        4.0641531598       -0.0898557872
 H        -8.8503234146        5.4807378787       -2.2927120386
 H       -10.5551866373        5.4224563557       -1.6219025239
 H        -7.4029621137        3.5719840429       -4.5524636093
 H        -8.4057648975        3.3701389014       -6.0411898660
 H        -6.3151790479        2.1166824125       -6.3836925099
 H        -7.6694708185        1.0413469473       -5.9370695163
 H        -4.5597955723       -1.1723982585       -1.8124110395
 H        -5.0028329374       -2.6802594159       -2.7059808993
 H        -5.4212928767       -2.8291254233       -0.2630075192
 H        -6.8591792919       -3.1633961828       -1.2319330872
 H       -10.3156431228       -1.6884841289        2.7640106732
 H        -9.9087285872       -3.2494635525        1.9483416656
 H       -11.1916571539       -2.3148561108        1.3234287938
 H        -7.5353839725       -3.8807507211        1.1686285000
 H        -7.9049500945       -3.2470541829        2.7534507560
 H        -6.3142062239       -3.3469255817        2.1226798187
 H        -7.4970168032        0.2787790879        1.9359646001
 H        -6.4120119680       -0.7609203329        2.7455511826
 H        -8.0442396261       -0.7263478872        3.2698865088
 H        -5.7268940604       -0.8337916775       -6.4391535927
 H        -7.3048733547       -1.2325879529       -5.5301647967
 H        -5.8069987186       -2.1175448053       -5.0233798347
 H        -3.6190032763       -0.9506615355       -4.0820524619
 H        -4.0090359850        0.5872249830       -3.2840476480
 H        -3.9311838641        0.4624433780       -5.0028306234
 H       -11.9823795892        2.1438235648       -4.4087949689
 H       -12.2229900966        3.2125556177       -2.9573412460
 H       -11.4477242392        1.6381853551       -2.8497450369
 H       -10.7473101402        4.2852971983       -5.5444126994
 H        -9.5443910445        5.1944344453       -4.4673743636
 H       -11.2135193194        5.1816206928       -4.1234007680
 H        -6.7685236288        8.6771973451        1.9636129486
 H        -8.3826831560        8.6315711206        1.2055352761
 H        -6.9302714476        8.3584436936        0.3444675701
 H        -6.1383499897        5.7418013139        0.1499627418
 H        -6.4822941673        4.8287910918        1.6324123329
 H        -5.5751920611        6.0814747994        1.7777842714
 H       -12.7819498715        9.3513087648        6.3895733643
 H       -14.1922128946        8.3906014463        6.4625402250
 H       -13.6557938215        9.1329283337        4.9200347991
 H       -12.9773012630        6.1714548910        7.0012804144
 H       -11.9558831433        7.5099564890        7.5059896256
 H       -11.3699695884        6.0237062027        6.6350214881
 H       -12.6138631749        7.9947826377        0.4550926971
 H       -13.7801887571        9.2870002029       -0.0239577520
 H       -13.0144112782        8.3285976413       -1.2521952477
 H       -16.5719760768        8.2231671570       -0.6337310333
 H       -16.1910367431        7.0732137006       -1.9315723445
 H       -15.4562471177        8.7369819102       -1.7661893329
 Na       -8.7847874239        0.5343690362       -1.7881927940
