117

 C       -15.0227262852        4.6898393075       -0.7569988626
 C       -14.1682621367        5.9708279729       -0.9170226953
 O       -13.1031766076        5.9026270651       -1.4996960382
 C       -14.6981365238        7.3113578748       -0.2920153080
 C       -15.2262800542        7.1066824089        1.1741323319
 O       -16.2475334205        7.6589436842        1.5510266377
 C       -14.3389498516        6.3429683498        2.1410349202
 C       -13.9215961722        7.3198247620        3.2959117338
 C       -13.0958355914        6.6592717241        4.4104435195
 O       -13.0132083622        5.4232568969        4.4392880017
 C       -12.4502129658        7.5618594161        5.4863089455
 C       -11.1544052311        8.0501910943        4.6857486148
 O       -11.0263584923        9.2297172491        4.3774771754
 C       -10.0417274523        7.0721047404        4.4291467024
 C        -9.0014111137        7.5769365956        3.3661962755
 C        -8.2582581763        6.4329073199        2.6314321286
 O        -8.3773004797        5.2894153088        2.9737660050
 C        -7.4546907595        6.7703758164        1.2445787175
 C        -8.6296404470        6.5748707962        0.1063935433
 O        -9.4779115831        7.4512000012       -0.0500322162
 C        -8.8801252868        5.0882796131       -0.3887287676
 C        -9.6790235063        5.0193483938       -1.7561380248
 C        -9.5276906427        3.5482090206       -2.1971800143
 O        -9.0683369920        2.6531039697       -1.4303040834
 C       -10.1266646633        3.1509594414       -3.5948508629
 C        -9.1621821260        2.2163156160       -4.3937654082
 O        -9.2393813378        1.0288763086       -4.2076630904
 C        -8.1811099433        2.7165880339       -5.4301959125
 C        -7.0325427931        1.6759520239       -5.6771637221
 C        -6.5413053502        1.1502153073       -4.3337703289
 O        -6.6447808523        1.6792505213       -3.2482155589
 C        -5.9024579278       -0.3318647695       -4.3511878802
 C        -6.4427821171       -1.1468583476       -3.1347303062
 O        -7.6457924417       -1.3393304066       -3.0029060403
 C        -5.4626961338       -1.7138795868       -1.9448498889
 C        -6.4106454737       -2.3445313076       -0.8142959096
 C        -6.8837631651       -1.2837803059        0.2456559317
 O        -6.7216665297       -0.0660015934        0.1110172749
 C        -7.6438292706       -1.8363055360        1.4714635326
 C        -9.1127955454       -1.6728794624        1.0871083767
 O        -9.4008784309       -0.9409633314        0.1785973937
 C       -10.1011722649       -2.4538525900        1.8971752119
 C        -7.2944909274       -3.2610763678        1.8416700230
 C        -7.3400024296       -0.9178283286        2.6466491960
 C        -6.1637782333       -1.2233818232       -5.6385033286
 C        -4.3428425772       -0.2156658380       -4.2238961876
 C       -11.4663842002        2.3975456597       -3.4854913101
 C       -10.4073012733        4.4043746612       -4.5196956358
 C        -6.9138841074        8.1912028532        1.2119954967
 C        -6.3548077607        5.6946769429        1.1448640011
 C       -13.2011167064        8.8414356469        5.8627752323
 C       -12.1596566088        6.7977911089        6.7044845779
 C       -13.4840520902        8.3234077265       -0.1968814193
 C       -15.8166336717        7.8520696000       -1.2708674444
 H       -15.0473643900        4.3275247813        0.3377714125
 H       -14.5433074293        3.9639241929       -1.3376191132
 H       -16.0583826506        4.9729466971       -1.0510079651
 H       -13.5307737528        5.8672119898        1.6124889985
 H       -14.9831712461        5.5873043277        2.6048183916
 H       -14.8144747870        7.9024472121        3.6125549906
 H       -13.1652748496        8.0180738941        2.9157775188
 H       -10.4512383819        6.1132639021        3.9818290343
 H        -9.7255657620        6.7191321716        5.4078708643
 H        -8.1727824530        8.1905323878        3.8545115074
 H        -9.5165905452        8.2235751083        2.6764546263
 H        -9.5305941356        4.6449275438        0.3758289075
 H        -7.9875349909        4.4577577990       -0.4799176764
 H        -9.2889584507        5.6716536020       -2.4730208205
 H       -10.7400367062        5.2255593294       -1.5078582667
 H        -7.6240399482        3.6262178383       -5.0763082449
 H        -8.6628488970        2.9385312532       -6.3827690263
 H        -6.1957572688        2.1243309071       -6.2669297957
 H        -7.4573456659        0.9363941747       -6.2407734585
 H        -4.7503921459       -0.9846459051       -1.5188819488
 H        -4.8343233489       -2.4975472621       -2.4064299453
 H        -5.9802733976       -3.1823047222       -0.2500400296
 H        -7.3822603894       -2.7331680448       -1.2573024428
 H        -9.7073288512       -2.4929693460        2.9938597382
 H       -10.1808115123       -3.4571710062        1.5655604161
 H       -11.0712169384       -2.0066010565        1.8892004095
 H        -7.4319116115       -3.9757845451        1.0563953538
 H        -7.8147336984       -3.6229668751        2.7254746427
 H        -6.1782246559       -3.4258173667        1.9761477016
 H        -7.6817957106        0.0905899740        2.4171434428
 H        -6.3154994586       -0.9063658610        2.8803308631
 H        -7.7521175914       -1.3156199576        3.6561899828
 H        -5.5892144216       -0.6972948072       -6.3670885879
 H        -7.2321227086       -1.1422967107       -5.8838171977
 H        -5.7408053805       -2.1660492218       -5.4177182477
 H        -3.9366583522       -1.2313205375       -4.1004335873
 H        -4.0218077988        0.3140491322       -3.2848660685
 H        -3.8144808949        0.2453857384       -5.0497830076
 H       -11.7881796132        2.0080662088       -4.4232595284
 H       -12.2091559258        3.0557222224       -3.0075238096
 H       -11.4299528571        1.5455974783       -2.8323194722
 H       -10.8436668426        4.1687982666       -5.5084221305
 H        -9.4983945282        5.0171896340       -4.6498962703
 H       -11.1243015432        5.0334351878       -4.0800728392
 H        -6.3623907358        8.4304618134        2.1682329683
 H        -7.7505487962        8.9129456659        1.1611193846
 H        -6.1920756501        8.4117244482        0.4380783688
 H        -5.9430096483        5.6611599667        0.0670999810
 H        -6.8857039402        4.7153274145        1.3792685323
 H        -5.5238530232        5.7647822842        1.8997395772
 H       -13.0105294162        9.1801605233        6.9360876154
 H       -14.2287065809        8.5548791448        5.8962233165
 H       -13.0094444467        9.6187434888        5.1106140485
 H       -13.0868756994        6.7302723997        7.3206038854
 H       -11.4021968785        7.3281573642        7.2401859495
 H       -11.9745481676        5.7083475044        6.4508639179
 H       -12.6502995606        7.8472708550        0.3550790102
 H       -13.8448378178        9.1318020803        0.3719954188
 H       -13.1239655109        8.7142722867       -1.1871606249
 H       -16.9013408092        7.8375053860       -0.9978498811
 H       -15.6411981518        7.3041503849       -2.1803258986
 H       -15.7049755115        8.8852747156       -1.4765330525
 Na       -8.4596196182        0.3127146113       -1.5762224937
