117

 C       -15.4469032963        5.3154899575       -1.6610842129
 C       -14.2714241399        5.9186929807       -0.9664156240
 O       -13.2493065321        5.3039062812       -0.7280254496
 C       -14.4225469946        7.4618711164       -0.6756079377
 C       -14.7630437043        7.5103110795        0.8493883326
 O       -15.9133974480        7.5877018724        1.2455818951
 C       -13.6085897450        7.3659326571        1.9881713461
 C       -14.0936111404        7.7578272126        3.3468260088
 C       -13.3702386646        6.9855064792        4.4493935644
 O       -13.4542689897        5.8147569456        4.6116122109
 C       -12.3403564294        7.8243042692        5.3713578016
 C       -11.2645438489        8.2804457683        4.4611145053
 O       -11.0741425216        9.4186726123        4.1227891407
 C       -10.3812742960        7.1237200260        3.7730626525
 C        -9.2798366565        7.7118144674        2.9163822049
 C        -8.2844671580        6.6877575288        2.3383293833
 O        -8.2701194770        5.5402878712        2.7370622884
 C        -7.3560802164        7.2608374840        1.1565292034
 C        -7.9531107229        6.7939258473       -0.2059776544
 O        -8.3744243177        7.6010918328       -1.0535479112
 C        -8.1744227612        5.2722653213       -0.3615275879
 C        -9.0528926359        4.8887496654       -1.5719853114
 C        -9.3885609543        3.3935654015       -1.7382650467
 O        -8.8466647304        2.5155017382       -1.0742733129
 C       -10.3685706347        2.9893166876       -2.9750970071
 C        -9.8019547352        1.7290079984       -3.6848537498
 O       -10.0909719501        0.6390902268       -3.3476357272
 C        -8.7193413261        1.9487316915       -4.7903760921
 C        -7.9404643204        0.6751671625       -5.1706290053
 C        -6.9113939756        0.3554372006       -4.1216252740
 O        -6.7935651432        1.0963291176       -3.1500808553
 C        -6.0757263617       -0.9229396433       -4.1113703943
 C        -6.2982831333       -1.5931370968       -2.6569377257
 O        -7.4605462978       -1.9042894556       -2.3465277414
 C        -5.0695222643       -1.7226612530       -1.7284978470
 C        -5.5186585483       -2.1505888833       -0.4025124542
 C        -6.7638129393       -1.3578503933        0.0448517619
 O        -6.7129604144       -0.2079571334       -0.3852615794
 C        -7.7796912224       -1.8426644519        1.1354595585
 C        -9.2798709029       -1.5888466279        0.7731329949
 O        -9.6480670079       -1.0175530772       -0.2359979317
 C       -10.3764618698       -2.1662918401        1.6559186769
 C        -7.5439816883       -3.3206512231        1.4827929086
 C        -7.3817438795       -0.9721460007        2.3402573353
 C        -6.4833181717       -2.0021419980       -5.2040041015
 C        -4.5756254032       -0.6269685264       -4.3881685104
 C       -11.7338609989        2.6309636972       -2.3221552711
 C       -10.6349544617        4.2125392616       -3.9272435639
 C        -7.0936958040        8.7900256430        1.1127398743
 C        -5.9313981973        6.5681470042        1.1605838692
 C       -13.0822774234        9.0333329240        6.0455807316
 C       -11.8666050325        6.8450121196        6.4418218280
 C       -13.0790106175        8.1724515498       -1.0218628718
 C       -15.5291375601        8.1681423621       -1.4751612966
 H       -16.3424511902        5.2916345265       -0.9775233172
 H       -15.1658736228        4.3010912723       -2.0556697220
 H       -15.6743120603        5.9420252337       -2.5632692638
 H       -12.7683226804        7.9255945302        1.6999984079
 H       -13.2758943757        6.2893880267        1.9590422828
 H       -15.1492770510        7.4843276646        3.3850991853
 H       -14.0756449391        8.8667318855        3.4467093471
 H       -10.9326270373        6.3330752561        3.1735019177
 H        -9.7997426530        6.6717702751        4.5906435500
 H        -8.7386349317        8.4988477458        3.4559116583
 H        -9.7964275529        8.2828721604        2.1905268078
 H        -8.6377692828        5.0125996462        0.6087046707
 H        -7.2269290894        4.7113404055       -0.4178540708
 H        -8.6488764501        5.2385542751       -2.4914699554
 H       -10.0891210503        5.4260032065       -1.5646645808
 H        -7.9472006175        2.6452569445       -4.3803178883
 H        -9.1742605893        2.5315702308       -5.5977915240
 H        -7.5875700176        0.7732503979       -6.2884913714
 H        -8.5910924321       -0.1629295972       -5.2321611770
 H        -4.5133718659       -0.7370655782       -1.6128763244
 H        -4.3718713690       -2.5371066594       -2.0032630061
 H        -4.8639394732       -1.8046729647        0.3427778177
 H        -5.5341491379       -3.2574105810       -0.3319429924
 H       -10.0410694582       -2.2901280467        2.7008733111
 H       -10.6019545798       -3.1505748123        1.2788537921
 H       -11.3031915247       -1.5383024484        1.6926395571
 H        -7.7144295283       -4.0420500072        0.6899821430
 H        -8.2887931314       -3.5053201084        2.2762360614
 H        -6.5304544258       -3.3960347485        2.0017034035
 H        -7.5345055758        0.0939697615        2.1085748579
 H        -6.3828093161       -1.1226789041        2.5706744736
 H        -8.0946654838       -1.1874260858        3.1377542720
 H        -6.9011568871       -1.5073930763       -6.1139400010
 H        -7.2446598235       -2.7671420905       -4.8283521015
 H        -5.6337640854       -2.6368394329       -5.4962379946
 H        -3.8360060114       -1.3759999870       -4.2100144934
 H        -4.0985744156        0.3034502540       -3.9507403298
 H        -4.4868035833       -0.3689697895       -5.4031199441
 H       -12.4687282901        2.3970564735       -3.0701096651
 H       -12.1581310045        3.5113721953       -1.8104786947
 H       -11.7162129608        1.8063010606       -1.6525843215
 H       -11.2909797780        3.8367448479       -4.7356278806
 H        -9.7027531121        4.6606159856       -4.3154798616
 H       -11.1497867322        4.9972828052       -3.4856847659
 H        -6.7167385799        9.2211765108        2.0954469216
 H        -8.0253532143        9.3161511906        0.8402894630
 H        -6.3361598061        9.0361143973        0.4026140650
 H        -5.3399933351        6.9387116086        0.2571643817
 H        -6.1528615101        5.4987430740        1.2156552684
 H        -5.4719363181        6.7241334991        2.1861537278
 H       -12.7026917376        9.0779874996        7.1242067753
 H       -14.1586607035        9.0201074929        6.0412321334
 H       -12.7366471753        9.8899558629        5.4593424740
 H       -12.7347620760        6.5815904845        7.0925066236
 H       -11.1294666997        7.3091934125        7.0753798913
 H       -11.4240039062        5.8829875682        6.0201735369
 H       -12.2028715260        7.6867454417       -0.5448885408
 H       -13.0162345268        9.2079962432       -0.9213256171
 H       -12.9084663245        8.0379764589       -2.1240132500
 H       -15.4133867223        7.9652548939       -2.5142508178
 H       -15.3918928854        9.2841548460       -1.3020808142
 H       -16.5578092372        7.9156801292       -1.1440718435
 Na       -8.6453568843        0.4232688831       -1.5570273887
