117

 C       -15.3874087834        5.1450375663       -1.4928604362
 C       -14.2535615324        5.9590096019       -0.8945485720
 O       -13.1986675818        5.4449085100       -0.6732824527
 C       -14.5358953942        7.4679928834       -0.5186873326
 C       -15.0237872341        7.3636112152        0.9825086934
 O       -16.1951808628        7.4738678180        1.3271344992
 C       -13.9123761571        6.9927324522        1.9967203873
 C       -13.9645821494        7.7928364659        3.2968016996
 C       -13.3261716459        6.9345029658        4.4651410689
 O       -13.4015099531        5.7363191977        4.5150517769
 C       -12.3947713152        7.6794166227        5.4384864104
 C       -11.1010560142        8.1512656523        4.5947608241
 O       -10.9223928229        9.3081842799        4.3102260472
 C       -10.1154436024        7.1422464828        4.0628978383
 C        -9.3546652204        7.6683051326        2.8617601879
 C        -8.3884289345        6.6765021489        2.3416561654
 O        -8.4208336535        5.4853315081        2.6221037942
 C        -7.3482566777        7.0153787524        1.1836748810
 C        -8.1876346492        6.6716715679       -0.0771428665
 O        -8.9081948488        7.5700615719       -0.5970017624
 C        -8.1250807256        5.2998207816       -0.6623107928
 C        -9.2388018867        5.0688962071       -1.6818908136
 C        -9.5955872867        3.6055934898       -2.0079120317
 O        -9.1844304161        2.6852909494       -1.2589961019
 C       -10.3837878487        3.1691242545       -3.2816200864
 C        -9.5587777970        2.0129333410       -3.9181524181
 O        -9.7826652728        0.8805160735       -3.6394860577
 C        -8.3580944209        2.3165890234       -4.8644082573
 C        -7.5224256864        1.0575032152       -5.2066818909
 C        -6.6547757261        0.6255087175       -4.0550241284
 O        -6.5205315451        1.3255377105       -3.0532556711
 C        -5.8259399696       -0.8362496199       -4.2367788917
 C        -6.1754377829       -1.6082474075       -2.9751686761
 O        -7.3180329966       -2.0748794127       -2.9143587317
 C        -5.2144895539       -1.6267912530       -1.7566366928
 C        -5.8066673583       -2.3176152149       -0.5641421488
 C        -6.7791809778       -1.3366278249        0.2354357597
 O        -6.8810962443       -0.1954916220       -0.1677305135
 C        -7.6631894850       -1.8638476663        1.3284418354
 C        -9.2828234603       -1.6397108877        1.0464625052
 O        -9.6503371166       -0.9296037156        0.1519765310
 C       -10.2753972143       -2.3347102578        1.9052874941
 C        -7.4204728587       -3.3645797206        1.6425395591
 C        -7.2833537236       -1.0625377791        2.6689499210
 C        -6.3989165759       -1.5967840587       -5.4359216941
 C        -4.4113397369       -0.4583971305       -4.5639965115
 C       -11.7456894127        2.6190870966       -2.7997800307
 C       -10.6712579191        4.3194045487       -4.3224363357
 C        -6.9262823854        8.4687968658        1.1707958363
 C        -6.0185763778        6.1172844486        1.3176802215
 C       -13.1605477250        9.0011659481        5.9662873305
 C       -11.8873866510        6.7389211598        6.5317193293
 C       -13.2543783990        8.3123652393       -0.6532388283
 C       -15.6820976244        8.0079131605       -1.3718646153
 H       -16.3790257421        5.6672450646       -1.6772039315
 H       -15.3956880017        4.2782403559       -0.9021279202
 H       -15.0109573687        4.8760241469       -2.4953714650
 H       -12.9979951119        7.1508853958        1.4846130260
 H       -13.9303709961        5.8738828040        2.2798128668
 H       -14.9688569794        8.0007787995        3.6235412853
 H       -13.4455758521        8.7679056109        3.1324437897
 H       -10.5834034258        6.1604596691        3.8797874113
 H        -9.3552696495        7.0496682668        4.8183002293
 H        -8.9173156416        8.6425176434        3.1237649068
 H       -10.0405746526        7.8612189303        2.0545524477
 H        -8.2340855287        4.5323561346        0.1294393418
 H        -7.1606941515        5.2383260597       -1.1701151197
 H        -8.9295099134        5.4772864767       -2.6115607691
 H       -10.1923266099        5.6595807086       -1.3195646949
 H        -7.7863974948        3.1517351303       -4.4516926577
 H        -8.7866846439        2.7051894030       -5.8022860587
 H        -6.9823847735        1.1473717195       -6.2420372550
 H        -8.2292913152        0.2833089519       -5.4876213032
 H        -4.7251491437       -0.6442219471       -1.4439207358
 H        -4.3989848791       -2.3063480116       -1.9861962670
 H        -5.0876119219       -2.8505282577       -0.0383636779
 H        -6.4660089316       -3.1359828072       -0.9162935828
 H       -10.2044582325       -2.0521050782        3.0305210909
 H       -10.2640670993       -3.3953833234        1.8585815369
 H       -11.1866793599       -1.9193362689        1.5205572641
 H        -7.7432787331       -3.9833390083        0.8181216931
 H        -7.9603351153       -3.7825872070        2.4670513153
 H        -6.3364321081       -3.5053510329        1.9143244120
 H        -7.6110038704       -0.0415756402        2.6305515138
 H        -6.2674232619       -1.0294511330        2.7558735618
 H        -7.7862299622       -1.5396238801        3.5515706297
 H        -5.9172520492       -1.1954753895       -6.3573091353
 H        -7.5489689802       -1.5758005289       -5.3655973096
 H        -6.0542292511       -2.6432947408       -5.2943679577
 H        -3.7686067728       -1.3355241365       -4.6136992478
 H        -3.8361821888        0.1745204390       -3.8653882585
 H        -4.3020382406        0.0054568623       -5.5043205002
 H       -12.3767301826        2.1131308598       -3.4995473907
 H       -12.3769497869        3.4627413670       -2.4502764372
 H       -11.5956773668        1.9690948125       -1.9321082468
 H       -11.3313917636        3.9590076077       -5.1270580973
 H        -9.7929221952        4.7726315649       -4.8368330480
 H       -11.1589616714        5.1103296337       -3.8075901807
 H        -6.4727075720        8.7781400128        2.1570020865
 H        -7.6478739470        9.2703976651        0.8958970964
 H        -6.1643651177        8.4883605589        0.3824685690
 H        -5.5255623821        6.0318077118        0.3361478778
 H        -6.2386299565        5.0803681635        1.5909264070
 H        -5.3788442414        6.7194798012        1.9413039155
 H       -12.4898299053        9.5738400414        6.6691839218
 H       -14.0844607873        8.6781307237        6.3664588112
 H       -13.4087403915        9.6600921808        5.1333834001
 H       -12.7946380056        6.5090540735        7.0728712753
 H       -11.2635886581        7.2126923517        7.2124245028
 H       -11.3161046473        5.8862025782        6.1423346775
 H       -12.3480269480        7.7376467652       -0.6145302608
 H       -13.1554447985        9.0407802075        0.0946637531
 H       -13.3154283271        8.8932522463       -1.6069125412
 H       -15.5681595459        7.9692998069       -2.4954906129
 H       -15.7964341033        9.0398310952       -1.0206388534
 H       -16.6378680383        7.6268407068       -1.0173156374
 Na       -8.7183560797        0.2983408206       -1.6845239899
