117

 C       -15.5637472198        5.3642665946       -1.2796616180
 C       -14.1896054953        6.0745317907       -1.0933007179
 O       -13.1487346112        5.3789998938       -1.2451842796
 C       -14.1369478718        7.5728775484       -0.7685911165
 C       -14.6299789115        7.6742891292        0.7768848048
 O       -15.7987117743        7.8222318871        1.0202094000
 C       -13.5711006199        7.4128074662        1.8639590561
 C       -14.2742047580        7.6400120513        3.2021621710
 C       -13.4490683140        6.9549427528        4.3125932709
 O       -13.3789004499        5.7266038362        4.4387427339
 C       -12.4749346288        7.7991343135        5.2269096921
 C       -11.2174444536        8.3544679691        4.2998022792
 O       -11.3470449779        9.4879013531        3.8362387577
 C       -10.0621130505        7.5111723265        3.9190779895
 C        -9.1290510693        8.0411035329        2.8744838969
 C        -8.1415054776        7.0475985364        2.2697025317
 O        -8.1577797637        5.8777465672        2.6594368009
 C        -7.3146577657        7.4436051443        1.0666566164
 C        -7.8376533706        6.6704503395       -0.2532098226
 O        -7.8388472801        7.3038015933       -1.2533722943
 C        -8.2174351922        5.1820371370       -0.2586155023
 C        -9.1946896645        4.9139750197       -1.4045114093
 C        -9.2368356689        3.4451286320       -1.7668835495
 O        -8.3060939765        2.7385825979       -1.3718834058
 C       -10.3638285582        2.9367910679       -2.7766700660
 C        -9.8663567259        1.6417214716       -3.5086400896
 O       -10.0244137169        0.5839575807       -2.8981723687
 C        -9.3614509160        1.6653045058       -4.9637387770
 C        -8.5472068043        0.4056759448       -5.2446750944
 C        -7.3037409162        0.2486119096       -4.2757451691
 O        -7.0474835154        1.1412954588       -3.5526349259
 C        -6.3868989593       -1.1136262532       -4.1889822486
 C        -6.5531596567       -1.5746341635       -2.7574597416
 O        -7.6258313692       -2.0643857477       -2.4164971633
 C        -5.3901175118       -1.5650031601       -1.7688217483
 C        -5.6808743225       -2.2209744156       -0.3329173756
 C        -6.7266682839       -1.4347435939        0.4522182908
 O        -6.7084406162       -0.1907399223        0.3311710994
 C        -7.7296360465       -1.9098096100        1.4884578625
 C        -9.2121549204       -1.7932106417        0.7949046474
 O        -9.4298483097       -1.2369734877       -0.2303284626
 C       -10.4360392223       -2.4584282386        1.4962453815
 C        -7.5061107691       -3.3875893895        1.9794929332
 C        -7.7545978085       -0.9413526895        2.6936224548
 C        -6.7716577321       -2.2424632699       -5.1742669533
 C        -4.9653261890       -0.6619629480       -4.4510046014
 C       -11.5931401364        2.6677771547       -1.8839267376
 C       -10.7395672209        3.9558519697       -3.8643968380
 C        -7.1836383513        9.0399515364        0.9703695008
 C        -5.8825128147        6.8246234192        1.3399770011
 C       -13.1699654549        9.0448528401        5.8419111567
 C       -11.8777113739        6.8794370306        6.3027964629
 C       -12.7251938504        8.1181749612       -0.8990142015
 C       -15.1144877736        8.2940409182       -1.6981757443
 H       -16.4601935738        5.8516023802       -0.8014546852
 H       -15.6018077258        4.3037011786       -0.9591758921
 H       -15.6787022002        5.3116092939       -2.4074679093
 H       -12.7100269953        8.1112744762        1.7020994144
 H       -13.1526179140        6.4226298247        1.8334308628
 H       -15.2739900085        7.1581041690        3.1463749722
 H       -14.4695788670        8.6695710485        3.4486353437
 H       -10.4798511770        6.4943292303        3.5951207616
 H        -9.5020267853        7.2035302866        4.8059028505
 H        -8.4898518398        8.8194354714        3.3486015919
 H        -9.6792881855        8.5629537918        2.1394604906
 H        -8.5737023937        4.9611364973        0.7223413590
 H        -7.2701653721        4.5799412931       -0.2897779270
 H        -8.7385358970        5.3580962647       -2.3663956163
 H       -10.1368544845        5.4096117078       -1.3205725960
 H        -8.8741754630        2.6435735128       -5.1888858251
 H       -10.3127758694        1.6942173506       -5.4884339010
 H        -8.3243878603        0.3964251212       -6.3145487357
 H        -9.2516818855       -0.5022981063       -5.0388202862
 H        -5.0948393569       -0.5170314474       -1.5952297828
 H        -4.4466344897       -2.1000107685       -2.1561939532
 H        -4.7670259096       -2.4443942832        0.2191585905
 H        -6.2131604616       -3.1292810001       -0.5303231179
 H       -10.1575211692       -2.7111148735        2.5102326557
 H       -10.7440143594       -3.3758019857        0.9239928667
 H       -11.2986458373       -1.8026062669        1.5492634380
 H        -7.3676236798       -3.9674369851        1.0566778544
 H        -8.2947387432       -3.6672138500        2.7055737550
 H        -6.5380639964       -3.4297910427        2.3995185813
 H        -7.7519077371        0.0040268619        2.2506008852
 H        -6.8713001220       -1.0655863707        3.3821397626
 H        -8.5948603360       -1.0968755337        3.3130789602
 H        -6.9316983260       -1.8627353198       -6.2203349336
 H        -7.6472784251       -2.8263497825       -5.0180709988
 H        -5.8933765427       -2.9227530312       -5.2763883237
 H        -4.2389632434       -1.4591015287       -4.5473654344
 H        -4.6022638134       -0.0508108108       -3.6865452883
 H        -4.7145155636       -0.0729526302       -5.3561091038
 H       -12.4536919387        2.4353732109       -2.5357544263
 H       -11.8390907842        3.4746471033       -1.2376564749
 H       -11.4542658233        1.7869232762       -1.2808112068
 H       -11.3765410258        3.4283851009       -4.5656259357
 H        -9.9191421290        4.3810843732       -4.4004039208
 H       -11.4024962275        4.7462289819       -3.4386074710
 H        -6.7308715330        9.3889082382        1.8715561004
 H        -8.0939553357        9.5801261501        0.7302592420
 H        -6.4730142033        9.2948286196        0.1480340641
 H        -5.3018353938        6.9050765475        0.3949762686
 H        -5.9319682532        5.8156732679        1.8941044077
 H        -5.3666951681        7.5317168010        2.0437656840
 H       -12.5505852116        9.8786519416        6.0753781977
 H       -13.5424321604        8.6639886112        6.8360644819
 H       -13.9984058105        9.3714923695        5.1936429947
 H       -12.6568789212        6.5678994427        7.0065409104
 H       -11.1025523914        7.4124815175        6.9516471593
 H       -11.5605531909        5.9175907047        5.9436107466
 H       -11.9289897776        7.5051444498       -0.4490860417
 H       -12.5463446164        9.1873705384       -0.6179289271
 H       -12.4290048847        8.0280955112       -1.9140333959
 H       -14.7558447375        8.1819063478       -2.7511771205
 H       -15.0870676867        9.3584241765       -1.4853520701
 H       -16.1138088430        7.8477311026       -1.6319488662
 Na       -8.0192876374        0.2970531557       -1.4086252031
