117

 C       -15.4221417205        5.1384869209       -1.5577659407
 C       -14.2697331935        5.9116644031       -0.9176073255
 O       -13.1553648381        5.3920674245       -0.6019224810
 C       -14.5346558266        7.4602592679       -0.5104246875
 C       -14.9499558601        7.3835294772        0.9979491088
 O       -16.0954388628        7.4634854106        1.3483349973
 C       -13.8020655241        7.1040930835        2.0032695031
 C       -14.0226284587        7.8163346075        3.3766289896
 C       -13.3341249537        6.9590750428        4.3605128013
 O       -13.5300460491        5.7756668647        4.3946160787
 C       -12.4194207525        7.6837978339        5.4010818127
 C       -11.1520056491        8.1971152147        4.5224344139
 O       -10.9924209129        9.3628437301        4.3045322579
 C       -10.1348698666        7.0969025496        4.0264415235
 C        -9.2954791614        7.6661269698        2.7652197299
 C        -8.3382238409        6.6125247039        2.2369967653
 O        -8.3663507535        5.4802844733        2.6677109362
 C        -7.2947975475        7.1121311036        1.1162339482
 C        -8.0824525392        6.7247504646       -0.1850180696
 O        -8.8404539799        7.5191462358       -0.7446617000
 C        -8.1241191639        5.2517526968       -0.5820812864
 C        -9.1942595769        5.1007162991       -1.6321107030
 C        -9.4881595766        3.6190134813       -1.9458883357
 O        -9.2511437217        2.8277634562       -1.0647344146
 C       -10.3881414366        3.1203753758       -3.1475176182
 C        -9.5919954605        1.9396035010       -3.8602781094
 O        -9.9232896511        0.8177201879       -3.6026128795
 C        -8.5037673039        2.2479529365       -4.9122499560
 C        -7.6175498113        0.9959642916       -5.1494152733
 C        -6.6527899378        0.5616603059       -4.0517439649
 O        -6.4636760031        1.1583973070       -3.0345008787
 C        -5.9024060517       -0.7781850564       -4.2681307937
 C        -6.1557895887       -1.5260809532       -2.8546823026
 O        -7.2801440928       -2.0853637710       -2.6829323656
 C        -5.0810525145       -1.7213528564       -1.8061846053
 C        -5.7604723536       -2.2647795069       -0.5182551187
 C        -6.8060475443       -1.3062246549        0.1358240623
 O        -6.8969755783       -0.1319712182       -0.2718740559
 C        -7.7355072196       -1.8998606965        1.2570805929
 C        -9.3083296545       -1.6697341386        1.0044824216
 O        -9.6692584824       -0.9403616289        0.1006940636
 C       -10.2469446822       -2.3352872656        1.9787631632
 C        -7.5159213315       -3.4046182008        1.5688435570
 C        -7.3830811236       -1.0291801215        2.5647541051
 C        -6.4442191932       -1.7655352266       -5.4396278084
 C        -4.4237562923       -0.4551254833       -4.5626197304
 C       -11.7485684990        2.6643933752       -2.5932206297
 C       -10.6446489329        4.2046022232       -4.2710881001
 C        -6.9241935862        8.6524442259        1.1975909316
 C        -6.0742491266        6.1787761954        1.3486680886
 C       -13.0782278761        8.9673061702        5.9399829576
 C       -11.9327669733        6.8351150198        6.5576929662
 C       -13.2297788308        8.2640441299       -0.7486208205
 C       -15.6187381226        8.1272999167       -1.3028950195
 H       -16.2563495918        5.7465630874       -1.5848666655
 H       -15.5481641717        4.1415841245       -1.0893687435
 H       -15.1039205265        5.0083251625       -2.5665556262
 H       -12.8117121085        7.2100517418        1.5054039256
 H       -13.9136451929        6.0253919426        2.2319098051
 H       -15.0825944633        7.9628682247        3.6159895382
 H       -13.5497428068        8.7789041261        3.4105531530
 H       -10.7659281626        6.2706293749        3.7418541464
 H        -9.4531541294        6.8251975193        4.7623208886
 H        -8.7546969155        8.6249518150        3.0760609629
 H        -9.9914974165        7.9989597664        2.0099475362
 H        -8.4999546087        4.6697836200        0.2397683780
 H        -7.1552591724        4.8545563816       -0.9427850982
 H        -8.8971869655        5.6229953382       -2.5784069792
 H       -10.1046879870        5.5862039682       -1.2462703481
 H        -7.8694749155        3.1014387485       -4.5781841940
 H        -8.9994834564        2.6015914020       -5.7863790790
 H        -7.0688349765        1.1453052891       -6.1426218982
 H        -8.2489349004        0.1789533611       -5.4608353116
 H        -4.6218434218       -0.8478626383       -1.4538928887
 H        -4.3030011699       -2.4114719460       -2.1090169174
 H        -4.9690157211       -2.4025326613        0.2423067066
 H        -6.2275326727       -3.2609970962       -0.5652712170
 H       -10.0276955650       -2.0425763210        2.9652361720
 H       -10.1276112523       -3.4109663890        1.9542328413
 H       -11.2916328520       -2.0131655723        1.7491754134
 H        -7.9283650284       -4.0001713033        0.8034271146
 H        -8.0544193924       -3.7443410289        2.4570606015
 H        -6.4761930282       -3.6057288802        1.8120994361
 H        -7.6003662317        0.0364214459        2.2765080498
 H        -6.3075989622       -1.0412684026        2.7561277586
 H        -8.0298450724       -1.2334065597        3.3619936057
 H        -5.8108346287       -1.5147272409       -6.2748328640
 H        -7.5236835151       -1.7420422788       -5.6241747997
 H        -6.1788742102       -2.7746179064       -5.1284981301
 H        -3.9718693370       -1.4047613393       -4.6041713887
 H        -3.7622062404        0.0226101719       -3.7808436749
 H        -4.1333473135        0.0738897047       -5.4401547438
 H       -12.4728117800        2.4586807422       -3.4176525872
 H       -12.2917836523        3.4380053279       -2.0228003685
 H       -11.6729017728        1.7838975400       -1.9979030909
 H       -11.3580584325        3.8395725067       -5.0582318093
 H        -9.7171283771        4.4826808029       -4.8099547016
 H       -10.9962975970        5.1194137740       -3.8701360844
 H        -6.3874764889        8.9402624235        2.1364431796
 H        -7.7472759575        9.3540705904        1.0941032012
 H        -6.3075569365        8.8394244836        0.3606552836
 H        -5.7286344779        5.9034256510        0.3921044772
 H        -6.3307202492        5.3081714760        1.8585760697
 H        -5.3274574692        6.8082305901        1.8359072124
 H       -12.6852373584        9.3015190199        6.9062621163
 H       -14.0933263155        8.6319351690        5.9741704760
 H       -13.0814861006        9.7575754906        5.2310091913
 H       -12.7944784571        6.6806129899        7.1722124954
 H       -11.2168261582        7.3502007786        7.1710142331
 H       -11.4353003697        5.9349433218        6.2280366264
 H       -12.3342953140        7.6028934039       -0.8180518678
 H       -12.9778330329        9.0136339198       -0.0474223785
 H       -13.3277574997        8.8253973490       -1.6683826016
 H       -15.2248106271        8.3263556859       -2.2175792001
 H       -15.8538460159        9.1195882439       -0.7770223878
 H       -16.6128953577        7.6733286387       -1.3976876698
 Na       -8.6391711579        0.2942827978       -1.7874361744
