117

 C       -15.3659209480        5.0812328288       -1.6053786472
 C       -14.3244667030        5.9744814451       -0.9363730088
 O       -13.2551170499        5.3863853668       -0.6173316447
 C       -14.4871572259        7.4691968336       -0.6537010220
 C       -14.8353871038        7.3954945324        1.0060651805
 O       -15.9848534078        7.5004142515        1.3077008890
 C       -13.7093073379        7.1882132711        1.9737372704
 C       -14.1115351960        7.8263313212        3.3242003983
 C       -13.3413430009        6.9966535191        4.3839886014
 O       -13.5463226349        5.7846563885        4.4177268865
 C       -12.3836916136        7.7350475554        5.4100221023
 C       -11.1622537428        8.2263767359        4.4746901679
 O       -11.0165400117        9.4225716076        4.2302318650
 C       -10.2562642605        7.1158845732        3.9282231815
 C        -9.3466196371        7.7529519596        2.7994956353
 C        -8.2929083738        6.6812081547        2.3027418084
 O        -8.2541639590        5.5097616801        2.5961561111
 C        -7.2470828657        7.1171683127        1.1041246775
 C        -8.0635042134        6.7912759662       -0.1778134366
 O        -8.6393421861        7.5780528698       -0.8305634495
 C        -8.1776065867        5.2767982097       -0.5421307480
 C        -9.2100497812        5.0310119479       -1.6985514780
 C        -9.5279664310        3.5290995951       -1.7847296728
 O        -9.1968122665        2.7254523148       -0.9843901179
 C       -10.3696349652        3.0842665088       -3.1234459145
 C        -9.7047746249        1.8725927870       -3.8197926041
 O       -10.0247880277        0.6841284145       -3.5150347908
 C        -8.6282992288        2.1640438466       -4.8334265206
 C        -7.7599053055        0.9568757457       -5.1595779957
 C        -6.7276163728        0.4465463757       -4.0881565666
 O        -6.5401469082        1.0699657584       -3.0764205851
 C        -5.8794582145       -0.9503356357       -4.2245940652
 C        -6.1753957920       -1.6309878892       -2.8365235788
 O        -7.2998751370       -1.9319771166       -2.5035704770
 C        -4.9828051956       -1.7396261590       -1.8572471793
 C        -5.6335532978       -2.1556298557       -0.4266304386
 C        -6.8732045422       -1.4098298450       -0.0163975073
 O        -6.9545375734       -0.2159309631       -0.2894088805
 C        -7.7716211949       -1.8681513812        1.1829239016
 C        -9.2591097014       -1.6101737152        0.9247344706
 O        -9.7074018873       -0.9640321533       -0.0054582332
 C       -10.2212391590       -2.2702766461        1.9504117513
 C        -7.5292739580       -3.3408513623        1.5027540709
 C        -7.4671578554       -0.9948383509        2.4064012172
 C        -6.4705846665       -1.8415590101       -5.3268057660
 C        -4.4711020568       -0.5350078697       -4.4270150455
 C       -11.6315973113        2.7172248430       -2.4322461321
 C       -10.5823017519        4.2372068955       -4.1496350357
 C        -7.0331634382        8.5986432333        1.1875504886
 C        -5.9870285328        6.2985566517        1.2923465338
 C       -13.0579625389        8.9805742370        5.9682523908
 C       -11.9481604760        6.8259684295        6.5810031196
 C       -13.1082591135        8.1437101538       -0.7671780789
 C       -15.6780162579        8.2618721294       -1.2724475761
 H       -16.3331338589        5.4744817075       -1.3619328108
 H       -15.1888353431        4.0640394565       -1.2351586712
 H       -15.1629621127        5.0973628952       -2.6754071675
 H       -12.7377509646        7.4744176255        1.4746846555
 H       -13.6697360138        6.1441839273        2.0885380253
 H       -15.2171546357        7.8518425148        3.4077122646
 H       -13.7784104281        8.8445068537        3.3538066209
 H       -10.9261175706        6.3766333245        3.5491540560
 H        -9.5744821209        6.7324296857        4.6947463910
 H        -8.8442617489        8.6225277348        3.2387651868
 H       -10.0195228272        8.2209575985        2.0239167998
 H        -8.5616846236        4.6885973629        0.2830777858
 H        -7.2057031454        4.8644642018       -0.8430902857
 H        -8.8044774182        5.3376551225       -2.7331297125
 H       -10.0780838230        5.5766550364       -1.5693860703
 H        -7.9532628963        2.9656927130       -4.5194224359
 H        -9.1950361318        2.6012316660       -5.6675529076
 H        -7.2617180524        1.2140654815       -6.0016476623
 H        -8.3696997056        0.1003096949       -5.5751407405
 H        -4.5533704431       -0.8015462085       -1.6948671593
 H        -4.2062278587       -2.4447575067       -2.1396169226
 H        -4.9643736634       -2.0889125271        0.5246679598
 H        -5.9515058667       -3.1968468774       -0.3983594472
 H        -9.9331995305       -2.0903919684        2.9338553720
 H       -10.0933210673       -3.3690718867        1.8207961645
 H       -11.2561113284       -1.9829497901        1.8645959206
 H        -8.0302809358       -3.9010527533        0.6972932090
 H        -8.0249096077       -3.6954726950        2.4068039106
 H        -6.5191944930       -3.5405206288        1.6458402911
 H        -7.4630287924        0.0599047391        2.1203574887
 H        -6.3881037303       -1.2139627854        2.7734055224
 H        -8.2774209829       -1.0681271982        3.0901425701
 H        -6.0895740613       -1.4548685566       -6.2484091696
 H        -7.5055928336       -1.9037375320       -5.2825708640
 H        -6.1339063198       -2.8554286957       -5.1865092475
 H        -3.7421142505       -1.3493719479       -4.5183657762
 H        -4.0528482073        0.0161636054       -3.6390981468
 H        -4.2684437804        0.1772649063       -5.2754020101
 H       -12.5031284221        2.6415733673       -3.1120614549
 H       -12.0105101114        3.3568603392       -1.6704363282
 H       -11.4610370527        1.7115175927       -2.0276660938
 H       -11.1993323763        3.8821244549       -4.9608746561
 H        -9.6800862182        4.6371607744       -4.5814502392
 H       -11.0991160412        5.1339647668       -3.6850436551
 H        -6.6039553071        8.8965173649        2.0825550112
 H        -7.9872959768        9.0486155325        1.1380676467
 H        -6.4591060716        9.0184502473        0.3623501448
 H        -5.6320456720        6.1177089247        0.3110009564
 H        -6.2351094453        5.3687296758        1.8229622832
 H        -5.2943727148        6.8693495070        1.8610730183
 H       -12.8452271202        9.0584498003        6.9856593158
 H       -14.1292229988        8.7328445130        5.8191766042
 H       -12.8808238445        9.8947780536        5.4147407618
 H       -12.8203481629        6.6699507379        7.2047758693
 H       -11.1133413461        7.1935190239        7.2448523336
 H       -11.6041873307        5.9076213543        6.1669492636
 H       -12.2445125179        7.5063161571       -0.5736354229
 H       -13.0272798614        9.0847262739       -0.1264500517
 H       -12.9810968315        8.6030006863       -1.7240745878
 H       -15.3434008703        8.3800747691       -2.3002904695
 H       -15.8576581552        9.2118448394       -0.8274276206
 H       -16.6179028009        7.7534039347       -1.2796541058
 Na       -8.5585046140        0.3331388646       -1.7607456422
