117

 C       -15.2406123280        5.3727933314       -1.2092024661
 C       -13.9349708756        6.0764673359       -1.2399471766
 O       -12.9648880411        5.5157309810       -1.5721155929
 C       -13.8935793538        7.6247047983       -0.7777288979
 C       -14.5494669705        7.8033857129        0.6123942465
 O       -15.6355344365        8.2881524561        0.8316546495
 C       -13.6234502848        7.3146105683        1.7209813828
 C       -14.1928190718        7.6021175329        3.1694794063
 C       -13.2716631042        6.8753470887        4.1317120406
 O       -13.0147712912        5.7054658457        4.1447131662
 C       -12.3729905132        7.8834538423        5.1269154724
 C       -11.4067891301        8.4981147084        4.0901789162
 O       -11.7353824916        9.3502721928        3.2774541209
 C        -9.9570414248        7.8555720404        3.9020817286
 C        -9.2503457586        8.3017049036        2.5976391550
 C        -8.2868111498        7.2016351368        2.1105384480
 O        -8.3505244087        6.1027722604        2.6019069067
 C        -7.2212002006        7.5095540314        0.9869896721
 C        -7.7237879645        6.8567649674       -0.3501824611
 O        -8.0494204431        7.5125075369       -1.3266470380
 C        -8.0404860093        5.2742117122       -0.3296400700
 C        -9.0699879344        5.0111332310       -1.4226321975
 C        -9.1861201059        3.4877496214       -1.6668061537
 O        -8.4926584644        2.7050851760       -1.1078972910
 C       -10.2856581259        2.8965985716       -2.6551351214
 C        -9.8595679335        1.4691475302       -3.2061564823
 O        -9.9314864776        0.4432733204       -2.5120116131
 C        -9.5601370023        1.3317051261       -4.7338509628
 C        -8.7348212861        0.0994764745       -5.0858466953
 C        -7.4018485681        0.0998992935       -4.3915480497
 O        -6.9991555392        1.1076909745       -3.7660230196
 C        -6.5935674615       -1.2290645025       -4.3474536211
 C        -6.8863618241       -1.6763210612       -2.8882143669
 O        -8.0206666384       -1.9104208419       -2.5986609192
 C        -5.7478269486       -1.7428434486       -1.7965352266
 C        -6.2634349159       -2.3419645120       -0.5133875915
 C        -6.6810293425       -1.2999854972        0.6455509094
 O        -6.5539573090       -0.0871812754        0.5747464821
 C        -7.6818037515       -1.9956335630        1.7016122481
 C        -9.1349935496       -2.0043636479        1.0924125996
 O        -9.6152744145       -1.0093489359        0.5562987912
 C       -10.0955004481       -3.2348681196        1.3002675484
 C        -7.2095872552       -3.4062016705        2.1384138938
 C        -7.7416954939       -1.0511112519        2.9777157599
 C        -7.0623708849       -2.2797972625       -5.3234694319
 C        -5.0919603592       -0.9596938165       -4.5732138092
 C       -11.3830978101        2.6164637041       -1.5945249924
 C       -10.8259276181        3.8719292211       -3.7361326624
 C        -7.0676163714        9.0750400158        0.7929070552
 C        -5.9242275454        6.8044148674        1.4892956512
 C       -13.2521628022        9.0109144677        5.7042580008
 C       -11.6781126091        6.9948169703        6.2325561446
 C       -12.4479423824        8.1059522284       -0.8530756005
 C       -14.7473174780        8.4823557262       -1.8588548389
 H       -15.8359858999        5.6294447742       -0.3152317321
 H       -15.2332095972        4.2541534884       -1.1984148702
 H       -15.9276086608        5.6499184188       -2.0759167543
 H       -12.6674399688        7.9087347561        1.6782317178
 H       -13.3819588585        6.2952748190        1.5270608040
 H       -15.1814048333        7.1428563519        3.2772678243
 H       -14.2857502448        8.6604928487        3.3758979423
 H       -10.0911706336        6.7724766119        3.9166185219
 H        -9.2449486577        7.9074518189        4.7704147676
 H        -8.7927781293        9.2206101337        2.8514396425
 H        -9.9466292616        8.5378361252        1.7789968305
 H        -8.5475686888        4.8673165489        0.5951094896
 H        -7.1603409104        4.6633765396       -0.4380969966
 H        -8.7917141939        5.4365528408       -2.4367317047
 H       -10.0142968300        5.4446522993       -1.1722576531
 H        -9.1016514831        2.2887181641       -4.9482594830
 H       -10.5671827036        1.2837310591       -5.2236021868
 H        -8.5071164043        0.1946217668       -6.1705633569
 H        -9.3331439323       -0.8129555182       -4.8584816929
 H        -5.2413637580       -0.7665764708       -1.5297834933
 H        -4.9005446233       -2.3315681464       -2.2302373377
 H        -5.5158825238       -3.0171174340       -0.0613949351
 H        -7.1031788332       -2.9343619977       -0.7744626187
 H       -10.5691157211       -3.3011831206        2.3170481210
 H        -9.5437800194       -4.1430436189        1.1366581092
 H       -10.8573615079       -3.2158740978        0.5005738247
 H        -7.4858310480       -4.1585505723        1.3902656857
 H        -7.7218539589       -3.6470662129        3.0489908667
 H        -6.1350632760       -3.2553774885        2.3645385227
 H        -8.0570854135       -0.0196544238        2.8079982121
 H        -6.8096285267       -1.0934293391        3.3850497090
 H        -8.4007675412       -1.5536418065        3.7339441271
 H        -6.8963764278       -2.0477805979       -6.3554230522
 H        -8.1482880855       -2.4798418627       -5.2064561577
 H        -6.6868772498       -3.2616087257       -5.2440506173
 H        -4.6587958762       -1.9639863477       -4.6275210238
 H        -4.4997348514       -0.5569036092       -3.7267367640
 H        -4.7083011226       -0.4770019612       -5.4386213252
 H       -12.2018280195        2.0520608793       -1.9704920019
 H       -11.7426136616        3.5502040848       -1.1540012633
 H       -10.8860979471        2.0975668046       -0.7463453362
 H       -11.4391463218        3.4266671773       -4.4942063855
 H        -9.9539941835        4.2560857543       -4.2794179352
 H       -11.3301414905        4.6731187380       -3.2120805353
 H        -6.7404205191        9.4692418990        1.7505701184
 H        -7.9998382016        9.5581299885        0.5568461050
 H        -6.3312410962        9.2706481957        0.0416514728
 H        -5.2014414278        6.6479898601        0.6227481524
 H        -6.2349085752        5.7770904004        1.6876357677
 H        -5.4463078161        7.4071623773        2.2736249391
 H       -13.1420741421        9.1607833660        6.7910721835
 H       -14.2733429866        8.8332885677        5.4238513200
 H       -12.9537494636        9.9719154353        5.2752015987
 H       -12.3377074841        6.7805490515        7.0891478552
 H       -10.8176286958        7.4737694777        6.6903118724
 H       -11.2365295388        6.0737233673        5.7785308220
 H       -11.7176727977        7.5421614340       -0.2924832988
 H       -12.3606371715        9.0844761011       -0.3568651748
 H       -12.0780284152        8.2908230883       -1.8962982567
 H       -14.4487237678        8.3311801603       -2.9106845913
 H       -14.5430118472        9.5367037366       -1.6285396802
 H       -15.8064140915        8.3230532841       -1.6308225757
 Na       -8.1937691091        0.4065206456       -0.9764880922
