117

 C       -15.4391926299        5.5266060730       -1.0480077416
 C       -14.0613828254        6.0644434691       -1.0859179436
 O       -13.0989660136        5.4033264999       -1.4019684546
 C       -13.9881954721        7.6326641618       -0.8016583583
 C       -14.6999740864        7.6620408778        0.6763343208
 O       -15.8741334442        7.8866078999        0.7661815985
 C       -13.7232078385        7.3442530285        1.8002172952
 C       -14.2825874235        7.5948877838        3.2266995383
 C       -13.3675969831        6.9048897489        4.2633057520
 O       -13.2662630852        5.6987998167        4.2502435879
 C       -12.4201322207        7.8221878184        5.2223906874
 C       -11.3636867214        8.4888150127        4.3109977181
 O       -11.5469567555        9.4684269232        3.6078544922
 C       -10.0499637132        7.5876587957        4.0356186436
 C        -9.1684553538        8.1515037131        2.8087426660
 C        -8.2265576689        7.0544887511        2.2555943153
 O        -8.2538636137        5.9410986712        2.7226217866
 C        -7.2647816227        7.4745799300        1.0248466326
 C        -7.7470955904        6.8083133049       -0.3769457404
 O        -7.7289666165        7.4824969307       -1.3660865609
 C        -8.2310361732        5.2439459824       -0.2998099475
 C        -9.0929976473        4.8704165835       -1.4262860739
 C        -9.1482657915        3.3445796422       -1.7463316949
 O        -8.2970553519        2.6149535125       -1.3719221946
 C       -10.3360938935        2.8384332761       -2.7261744211
 C        -9.8481295870        1.5342751469       -3.3019027991
 O        -9.7931875180        0.5483465666       -2.6101686039
 C        -9.4024081478        1.4726501429       -4.8444703472
 C        -8.6430587354        0.1950431415       -5.1208726915
 C        -7.3640557989        0.1813066041       -4.3472558800
 O        -6.9606683536        1.2059071178       -3.7686421881
 C        -6.4504143796       -1.1284697299       -4.2392602894
 C        -6.7095440919       -1.6809812039       -2.7767930929
 O        -7.8435330352       -2.0669786813       -2.5142262659
 C        -5.6096697930       -1.4941501380       -1.6722117952
 C        -6.0667180402       -2.2887162276       -0.4394862145
 C        -6.6668280006       -1.3463634395        0.6188999818
 O        -6.6166288666       -0.1582432893        0.4346600542
 C        -7.7032254029       -1.9495086821        1.5659280015
 C        -9.1691803932       -1.9112383255        0.9114781720
 O        -9.4214113407       -1.0510404445        0.0617081153
 C       -10.2803396528       -2.7822079026        1.4143110042
 C        -7.3707658047       -3.4647139068        2.0913030248
 C        -7.8275387907       -1.0208700143        2.8549362232
 C        -6.9449989672       -2.2079940073       -5.2545773494
 C        -5.0658373436       -0.7137681143       -4.5560299573
 C       -11.5636221658        2.5552723255       -1.8743323952
 C       -10.6982237540        4.0756731654       -3.6376092147
 C        -7.0758116683        8.9816628177        0.7687353271
 C        -5.8698873337        6.8032994465        1.1992207656
 C       -13.2451256223        8.9970390844        5.8496012340
 C       -11.7730787481        6.9935517512        6.3086651509
 C       -12.5174282286        8.1612400321       -0.9094457092
 C       -14.9185404144        8.4403744735       -1.7444154729
 H       -16.0636572477        5.9790019514       -0.3498763466
 H       -15.3717754206        4.4962028623       -0.6608829126
 H       -15.9351990490        5.4257274462       -1.9742549287
 H       -12.7563151853        7.8090303649        1.6353526935
 H       -13.5345940825        6.2201550693        1.7069468625
 H       -15.2923598377        7.2272222016        3.2647323104
 H       -14.3166982963        8.6703592913        3.4885466748
 H       -10.1602678509        6.5528308972        3.9241303833
 H        -9.4769687262        7.5427583027        4.9614939124
 H        -8.5686696554        9.0115404984        3.0871768547
 H        -9.8596841885        8.5252506786        1.9778075913
 H        -8.6913351001        5.1091912902        0.7128455177
 H        -7.3912286334        4.5775917808       -0.2336340874
 H        -8.8496620158        5.4620169487       -2.2830112798
 H       -10.1713966727        5.1286309606       -1.1834218973
 H        -8.7577255246        2.3071523255       -5.0454015572
 H       -10.3218497980        1.6305159115       -5.4189125805
 H        -8.4215104965        0.2310840905       -6.2108476494
 H        -9.1293222738       -0.6548782493       -4.8761540772
 H        -5.3419813525       -0.4591964476       -1.4569589594
 H        -4.7288466796       -1.9582778740       -1.9579079743
 H        -5.1730840749       -2.6736674452        0.0480033612
 H        -6.6851393845       -3.1591260251       -0.7696941183
 H       -10.2776114394       -2.9662987243        2.4679858477
 H       -10.2268404789       -3.6750997277        0.8247407357
 H       -11.2511444263       -2.3129494866        1.0893111415
 H        -7.1591027514       -4.1370149849        1.2978081446
 H        -8.2454723405       -3.6760016132        2.6634357356
 H        -6.4943163653       -3.4338944395        2.8007654364
 H        -8.0812623484       -0.0028674593        2.4322448644
 H        -6.9345707876       -0.9947280805        3.4119969253
 H        -8.5713766991       -1.3837509877        3.5518642822
 H        -7.2733380190       -1.7763043482       -6.2170666234
 H        -7.8961428396       -2.7461830654       -4.9650328624
 H        -6.2107580015       -2.9561322781       -5.5715437088
 H        -4.1899401578       -1.2046280121       -4.1474477006
 H        -4.8288400310        0.3879110041       -4.3534782755
 H        -4.8946076583       -0.7960225108       -5.5810971262
 H       -12.3611121315        2.2396112865       -2.5124037317
 H       -11.8319710567        3.4683904843       -1.2979479033
 H       -11.4010302672        1.7693948313       -1.1459498834
 H       -11.5702940308        3.8862701041       -4.2847850513
 H        -9.8780032213        4.2719187662       -4.3722581671
 H       -10.9188905049        4.8919367712       -3.0213932898
 H        -6.6252405530        9.4641390925        1.7081112558
 H        -8.0636601352        9.4461496743        0.5263359657
 H        -6.4624151216        9.2132782954       -0.0862976321
 H        -5.2516361098        7.1141875512        0.3480602018
 H        -6.0492701717        5.7659623446        1.2623780988
 H        -5.3519680327        7.1801010243        2.0948308046
 H       -12.5831497245        9.5397598187        6.6016202452
 H       -14.0943175966        8.6430809792        6.3881828742
 H       -13.4490286809        9.7540119347        5.0909918641
 H       -12.5040846483        6.4030344846        6.8673356071
 H       -11.3103451371        7.5946928553        7.0215493456
 H       -11.0634437224        6.2417673747        5.9172901517
 H       -11.7169670443        7.7036550329       -0.3691542138
 H       -12.4438598548        9.1727775609       -0.7034606686
 H       -12.1896999568        8.0615851885       -1.9720980190
 H       -14.8748984529        7.9606024476       -2.6695292717
 H       -14.4609929998        9.4275279318       -1.9892903395
 H       -15.9614566322        8.4428550452       -1.4057281304
 Na       -8.1336567717        0.4119959289       -1.3098827594
