117

 C       -15.0095842942        5.4440875066       -1.5478658616
 C       -13.7203475597        6.2246939538       -1.3566740640
 O       -12.6871028898        5.6145512456       -1.4870373540
 C       -13.8050168306        7.7598231250       -1.0373504044
 C       -14.3060368342        7.9010065303        0.4576877937
 O       -15.2383049611        8.5840264261        0.7653013512
 C       -13.4615316954        7.0738122967        1.4258973045
 C       -14.0246767861        7.2586820766        2.8708040684
 C       -13.1527154722        6.8627893560        4.0495013545
 O       -12.9273342515        5.7171176837        4.4445676416
 C       -12.3564187770        7.9646608416        4.8995555317
 C       -11.3848617989        8.6165664240        3.9399090451
 O       -11.7565727643        9.4527176429        3.1439618611
 C        -9.9408874527        8.0434205795        3.8046657840
 C        -9.0967177738        8.4649806878        2.5891199403
 C        -8.2796559963        7.2890114673        2.0089081429
 O        -8.5461858279        6.1454250874        2.2981614577
 C        -7.2818179635        7.5605371420        0.8715425348
 C        -7.9402307350        6.8688950246       -0.3806963583
 O        -8.5741606360        7.6126287694       -1.1252521481
 C        -7.8421426838        5.4124802399       -0.5720148513
 C        -8.8989263601        4.8922483287       -1.6110863275
 C        -9.1103457746        3.4100463162       -1.5421282788
 O        -8.5322153222        2.6948578772       -0.8285097082
 C       -10.3466000929        2.8916050131       -2.4427355955
 C        -9.9126003196        1.5998600237       -3.1207330044
 O       -10.0053277015        0.5649504509       -2.4806596201
 C        -9.5250636792        1.5430247140       -4.6307367807
 C        -8.8982855951        0.2157210844       -4.9214870506
 C        -7.5790789262        0.1326135988       -4.2479751900
 O        -7.1075574196        1.1645675852       -3.7216644952
 C        -6.7263880600       -1.1744046925       -4.1397681138
 C        -6.9698005747       -1.7250061115       -2.6564465319
 O        -8.0648286427       -1.8449845550       -2.1479117220
 C        -5.6984941921       -2.2132917296       -1.8808786432
 C        -6.0898911711       -2.7716665377       -0.4325859425
 C        -6.7341721186       -1.6194020344        0.4420175086
 O        -6.6301980719       -0.4390503460        0.1448377913
 C        -7.5696169896       -2.0745502635        1.7145785913
 C        -9.1128115021       -2.2143861471        1.3058372066
 O        -9.6535037498       -1.1813621572        0.8993374985
 C        -9.8540421124       -3.4945401319        1.4608621239
 C        -7.1192643366       -3.4219657878        2.4361471733
 C        -7.4907076749       -0.9481384812        2.7905068738
 C        -7.4207572279       -2.3323590388       -4.9970704151
 C        -5.3034979437       -0.9153900533       -4.5750301994
 C       -11.4558002919        2.5000418380       -1.4004747269
 C       -10.8519832729        3.9301786459       -3.4571353360
 C        -6.9075553799        9.0722388506        0.7482248554
 C        -6.0152798923        6.7400109862        1.2904151189
 C       -13.3264844216        9.0138772881        5.5698644527
 C       -11.6454393204        7.2451851882        6.1173833513
 C       -12.4192427296        8.2702163859       -1.2520185289
 C       -14.7018868444        8.5965243036       -1.9615576876
 H       -15.8353858584        5.6530218230       -0.8965881140
 H       -14.8504521301        4.3078265720       -1.4139028047
 H       -15.5323031274        5.6148349313       -2.5034494471
 H       -12.4614886803        7.5400216928        1.3376678092
 H       -13.3974428519        6.0577763594        1.1504755160
 H       -14.8851905811        6.5822448806        2.8311259244
 H       -14.3750800829        8.2756674590        3.0883165791
 H        -9.9581225255        6.9149378169        3.8379454740
 H        -9.3922272684        8.3463861838        4.7634245716
 H        -8.4691491891        9.2514426517        2.9157678364
 H        -9.7478761740        8.9105729008        1.8178016563
 H        -8.0712899218        4.9468537902        0.4239992982
 H        -6.8709016426        5.2079196951       -0.9165205162
 H        -8.5160234632        5.2543520539       -2.5755361229
 H        -9.8486239033        5.3479232913       -1.4711498339
 H        -8.7815527412        2.3225634156       -4.8195011440
 H       -10.4536879549        1.7190669634       -5.2336387386
 H        -8.7282473376        0.2583811027       -6.0750410665
 H        -9.4532896596       -0.6519374578       -4.6484881938
 H        -4.8833008098       -1.4069091005       -1.8950823341
 H        -5.1669897542       -3.0196066019       -2.4424196018
 H        -5.0766148545       -3.0225665728       -0.0317691587
 H        -6.6794513454       -3.6772891223       -0.5012741244
 H        -9.8123352674       -3.9881463229        2.4013097638
 H        -9.4282518413       -4.1126386417        0.7155409752
 H       -10.9139867850       -3.2417388319        1.1525571970
 H        -7.4004367716       -4.2952165561        1.8887557515
 H        -7.6614307982       -3.4852478397        3.3530820978
 H        -6.0349549916       -3.3318346023        2.7180696119
 H        -7.9391170825        0.0135790260        2.3741208469
 H        -6.4540593097       -0.7278830030        2.9600421687
 H        -8.0845366724       -1.1745554047        3.6494872465
 H        -7.4447294302       -1.9828333571       -5.9882436458
 H        -8.4470513710       -2.5406144670       -4.7365748870
 H        -7.0093929474       -3.2840713169       -5.1092715181
 H        -4.5864063845       -1.7155460894       -4.3975454944
 H        -4.8270446909        0.0088995194       -4.0610904486
 H        -5.2924678073       -0.6858899407       -5.6165194481
 H       -12.3174185523        2.2187901026       -1.9714498488
 H       -11.7725416141        3.4118585980       -0.8303100951
 H       -11.1638361377        1.6879025007       -0.7100726347
 H       -11.4335180417        3.4377020324       -4.2520171941
 H        -9.9892721201        4.5164509027       -3.8658895329
 H       -11.5081537390        4.6080389863       -2.9929791400
 H        -6.4856088801        9.3656308842        1.7058479901
 H        -7.7570586081        9.6928309898        0.6180095679
 H        -6.1771695876        9.1681303330        0.0261924574
 H        -5.2795644546        6.7982616448        0.4923226223
 H        -6.1774852386        5.7157244049        1.4063369658
 H        -5.6593242065        7.1549206204        2.2324150082
 H       -12.8863762971       10.0306929914        5.6002299416
 H       -13.6030569893        8.7205310331        6.5343989119
 H       -14.2609888439        9.0481987215        5.0568412886
 H       -12.4748073620        6.8120791909        6.6787983606
 H       -11.1424430782        7.9261237543        6.7328493116
 H       -10.9008002296        6.4430470646        5.9688998525
 H       -11.6139918619        7.7419125967       -0.7534992129
 H       -12.2167480159        9.3053211192       -1.1273035655
 H       -12.3001259292        8.0983028355       -2.3708876397
 H       -14.4507865969        8.3820443399       -2.9368355673
 H       -14.6095993123        9.6798334448       -1.6930773292
 H       -15.7376572899        8.3429104268       -1.7654550626
 Na       -8.7546768473        0.3168879592       -0.6585167948
