117

 C       -15.0335824255        5.4988189695       -1.6307310020
 C       -13.7316407811        6.2852824652       -1.4100638117
 O       -12.6172054192        5.6852393933       -1.3902999701
 C       -13.7423247063        7.7672134865       -1.1999738802
 C       -14.1760318701        7.8906506229        0.4419223740
 O       -15.1556651883        8.5792025678        0.6860990564
 C       -13.3870342578        7.0555921233        1.4439443546
 C       -13.9971036375        7.2515590597        2.9177431042
 C       -13.0622776703        6.7868118003        4.0851899778
 O       -13.0232182955        5.6076613836        4.4084911224
 C       -12.3245106798        7.9369932583        4.9177241136
 C       -11.3378652808        8.6418399125        3.8850749413
 O       -11.6929154326        9.5109288504        3.1079057591
 C        -9.9378273902        8.0141549532        3.8592397127
 C        -9.1218504041        8.4903082964        2.6648586482
 C        -8.3770695168        7.2952737967        1.9964269572
 O        -8.6339880416        6.1484371671        2.3599608010
 C        -7.2394302975        7.5925178795        0.8919177761
 C        -7.9902306392        6.9565695286       -0.4281081497
 O        -8.6965795364        7.6151491383       -1.1118846934
 C        -7.8229104514        5.3643167004       -0.6513751184
 C        -8.8756538592        4.8893347547       -1.6521591109
 C        -9.1387874748        3.3951484429       -1.5287537961
 O        -8.5578543167        2.6574241879       -0.6998176345
 C       -10.3548131216        2.9016216242       -2.4830641648
 C       -10.0534950956        1.5716933511       -3.1369982027
 O       -10.0075232652        0.5432764595       -2.4645448442
 C        -9.5929560586        1.5712326765       -4.6498918884
 C        -8.8969685141        0.2475033956       -5.0141679171
 C        -7.5497048485        0.2110225910       -4.1758544824
 O        -7.1015578098        1.1967147411       -3.7001137577
 C        -6.7866943911       -1.1510566581       -4.0609473497
 C        -6.8632898266       -1.7650010649       -2.5626458664
 O        -7.9575335851       -1.7908422704       -2.0032377771
 C        -5.6792716725       -2.4326648714       -1.8090899899
 C        -6.0588895545       -2.8389266931       -0.3406895485
 C        -6.8421588186       -1.7034531921        0.4180433560
 O        -6.6651673579       -0.5680819206        0.0917296209
 C        -7.6010084360       -2.0684970116        1.7379267370
 C        -9.1502676305       -2.2600993088        1.3601957805
 O        -9.6806813685       -1.2311230900        0.9624652425
 C        -9.8048882328       -3.5804523032        1.5241583211
 C        -6.9716002692       -3.3671195398        2.3152364707
 C        -7.4592144531       -0.9325162735        2.7177796226
 C        -7.5511843350       -2.2561708122       -4.8684710569
 C        -5.4085409105       -0.9595810717       -4.5964957912
 C       -11.3834104177        2.6094374129       -1.3342245006
 C       -10.9435493410        3.9723899842       -3.4737918361
 C        -6.8039843565        9.0164990026        0.5778165191
 C        -5.9678290963        6.8012384804        1.2753212776
 C       -13.3689125930        9.0362857489        5.3775357739
 C       -11.6428087844        7.3533656237        6.1381894658
 C       -12.2832192675        8.3774279853       -1.2996598408
 C       -14.8075358426        8.5218788315       -2.0139125855
 H       -15.8891839571        5.9053434621       -1.0271074824
 H       -15.0577635789        4.4267530661       -1.3921300721
 H       -15.5121477179        5.6275249265       -2.6131849575
 H       -12.3962268899        7.4327724866        1.4210533085
 H       -13.3769219666        5.9785143627        1.0814769260
 H       -14.8624725007        6.6145240233        2.9573496340
 H       -14.3012671277        8.2862018436        3.1019100926
 H       -10.0430229751        6.9260087593        3.7630449385
 H        -9.3750838950        8.1998334574        4.8174593966
 H        -8.5082800929        9.2950099556        2.9919689141
 H        -9.8054910274        8.9382596064        1.9127301384
 H        -8.0890529716        4.8159650757        0.2685513465
 H        -6.8242164318        5.1851080826       -1.0133986640
 H        -8.5794400202        5.2231578079       -2.6148106441
 H        -9.8280040080        5.4498106257       -1.3660012372
 H        -8.9266775941        2.4346194440       -4.7734723269
 H       -10.5202945985        1.6989724094       -5.2506958779
 H        -8.7695869074        0.2207699424       -6.1283255943
 H        -9.4642878405       -0.5810675875       -4.7220049154
 H        -4.7264229442       -1.8285563604       -1.9682216308
 H        -5.4158351072       -3.3624800774       -2.3325140438
 H        -5.1330345173       -3.0959227261        0.0949874137
 H        -6.6915677788       -3.7280780535       -0.4289457389
 H        -9.5767207117       -3.9508711904        2.4978906232
 H        -9.3338158501       -4.2755382165        0.7676424902
 H       -10.8889998754       -3.5107248332        1.3745545068
 H        -7.3601246428       -4.2460056071        1.8282966548
 H        -7.2494990901       -3.4394042876        3.3964875116
 H        -5.8743682793       -3.3046078442        2.2762089047
 H        -7.9246386994       -0.0972604581        2.2539142952
 H        -6.3946373812       -0.6176615818        2.8876270858
 H        -8.0168769700       -1.1043751080        3.5638088456
 H        -7.4466524096       -1.9603067094       -5.9022029648
 H        -8.5841674385       -2.3702531228       -4.7044210820
 H        -7.1734051797       -3.2698563722       -4.8979552581
 H        -4.8630855256       -1.9047342473       -4.6140388072
 H        -4.7993049756       -0.3003708796       -3.9592954063
 H        -5.3772131356       -0.5086810587       -5.5955246365
 H       -12.2317455723        2.0369292300       -1.7586633326
 H       -11.8131284245        3.5666312088       -0.9551550783
 H       -10.9584177947        2.0231258977       -0.5373565871
 H       -11.6325096220        3.4697806817       -4.1691636189
 H       -10.1034617924        4.4410335634       -3.9729712067
 H       -11.4982542909        4.7381700491       -2.9858969106
 H        -6.3949387502        9.4582237725        1.4579418677
 H        -7.6809250680        9.5638858961        0.3598328494
 H        -6.0898124717        8.9971138134       -0.1940357606
 H        -5.4162397870        6.8352127001        0.3373919100
 H        -6.1086586104        5.7261645990        1.4520676237
 H        -5.3891506154        7.1864633324        2.1607701991
 H       -12.9711557662       10.0439928479        5.2289079982
 H       -13.6766578351        8.9702050173        6.4073815500
 H       -14.2843515802        8.9346422047        4.8427408855
 H       -12.3182566961        6.7611723390        6.7646474734
 H       -11.1444506463        8.1344960623        6.7028927563
 H       -10.8073671813        6.6687905916        5.9046981605
 H       -11.5791084353        7.7973513236       -0.6358427183
 H       -12.2373151325        9.3995083441       -0.9418092487
 H       -11.8154064437        8.4304330182       -2.3085936783
 H       -14.6783084334        8.1863379197       -3.0242785227
 H       -14.6152539234        9.6094018819       -1.8900196596
 H       -15.8567917286        8.3471833693       -1.7100009241
 Na       -8.8129019968        0.3575726856       -0.6266717598
