117

 C       -15.2648500630        5.4793984413       -1.3064498344
 C       -13.8433516406        6.0817551922       -1.2567297592
 O       -12.8305394213        5.4690363123       -1.6534753609
 C       -13.8260040965        7.5858073585       -0.8181547437
 C       -14.4592532774        7.8307456542        0.6439974981
 O       -15.5032395078        8.3989153685        0.7916391747
 C       -13.5406477568        7.3148931912        1.7142680710
 C       -14.1801256129        7.5209707672        3.1598868750
 C       -13.2089083795        6.9227696791        4.1315479981
 O       -13.0270082698        5.6962219118        4.0699820819
 C       -12.3697411964        7.8659825912        4.9843754862
 C       -11.4006435367        8.4417656919        3.9634253689
 O       -11.7747110034        9.3612329063        3.2679682178
 C        -9.9776914869        7.8659052314        3.8672984397
 C        -9.2755858363        8.3688741498        2.5932754991
 C        -8.3283281721        7.2474909755        2.1319086464
 O        -8.4517487721        6.0986573154        2.5238024998
 C        -7.2811023212        7.4855794424        1.0728421666
 C        -7.9075400522        6.8677215291       -0.2803650189
 O        -8.0912731608        7.6306386801       -1.2135709660
 C        -8.0529534724        5.4235472684       -0.4136858388
 C        -8.9863872137        4.8602569254       -1.4891719344
 C        -9.1190883688        3.3418689437       -1.7230966265
 O        -8.4554922385        2.6192384667       -1.0341415037
 C       -10.3492236486        2.8672228547       -2.5201677227
 C        -9.9158761473        1.5087871592       -3.1423346253
 O        -9.9061716505        0.5773597883       -2.4146675688
 C        -9.5532781091        1.3689544112       -4.7195336691
 C        -8.7610953411        0.1255153479       -5.1337516688
 C        -7.4200482899        0.0736426280       -4.4312343456
 O        -7.0460655850        1.0190675071       -3.7557712857
 C        -6.6048329385       -1.3617060868       -4.2714456464
 C        -6.9620643882       -1.7334346862       -2.8463048908
 O        -8.1284046538       -1.8282123441       -2.4398474189
 C        -5.8165688558       -1.7086082693       -1.8009172323
 C        -6.2499227967       -2.3941128603       -0.4737315794
 C        -6.8266152105       -1.4286315309        0.6147655561
 O        -6.5581935620       -0.2649722116        0.4702446128
 C        -7.5906154029       -2.0292087397        1.7330970103
 C        -9.1350917304       -2.0494783395        1.1440966071
 O        -9.5949859584       -1.0430118702        0.6093997657
 C       -10.0376200890       -3.2386363417        1.2658088209
 C        -7.1386565155       -3.4121381398        2.1558525424
 C        -7.6265047365       -0.9612172468        2.9156255847
 C        -7.0271288369       -2.3168478893       -5.3368850402
 C        -5.0687767037       -0.9860680337       -4.5291167630
 C       -11.5403015475        2.6091179101       -1.5485332455
 C       -10.8440314053        3.9007616612       -3.5865361720
 C        -6.9791884655        9.0210387397        0.7585799542
 C        -5.9036863023        6.8911188729        1.4616358242
 C       -13.2011146555        9.0313446601        5.6670537495
 C       -11.6050673960        7.1154732467        6.1184853319
 C       -12.4499479088        8.1936123914       -0.9521183737
 C       -14.7523765933        8.3874029027       -1.7695919398
 H       -15.8366203164        5.6048460542       -0.4082905396
 H       -15.3513022972        4.3596794177       -1.4684115261
 H       -15.9012468391        5.8982325636       -2.0705150311
 H       -12.5826187045        7.8078527280        1.6753796133
 H       -13.3810191292        6.2265934659        1.3941031099
 H       -15.0985630901        6.9661930888        3.1845402549
 H       -14.3839935504        8.5811631899        3.3740900784
 H        -9.9128705094        6.8149353154        3.9734514438
 H        -9.4822436689        8.1693981252        4.8020403722
 H        -8.8561191824        9.3386306598        2.7822127742
 H       -10.0636374983        8.5328762882        1.8022123315
 H        -8.2832512813        4.8983329304        0.5592610734
 H        -7.0157049492        5.1600141545       -0.6727270691
 H        -8.6726077809        5.2753912438       -2.4394762788
 H       -10.0593379950        5.2532846392       -1.3364241836
 H        -9.0534346270        2.2951359340       -4.9493045788
 H       -10.5339245428        1.3494597103       -5.2164980818
 H        -8.5228272574        0.3598398445       -6.2077679500
 H        -9.2952406221       -0.7166156428       -5.0415324148
 H        -5.4751114171       -0.6686668945       -1.6131595294
 H        -4.9528620075       -2.1556211528       -2.1999381579
 H        -5.4150127987       -2.9199415230       -0.0552160678
 H        -6.9631829467       -3.1542298525       -0.7841934787
 H       -10.3567727824       -3.3194158822        2.2737534571
 H        -9.4008179449       -4.1250503818        1.0832575052
 H       -10.9281190780       -3.2809392308        0.5301473342
 H        -7.1351126688       -4.1086437545        1.3609737860
 H        -7.9176468226       -3.7475501720        2.8533963740
 H        -6.2079865698       -3.2017384439        2.7356616045
 H        -7.8179282895        0.0630191922        2.5759092560
 H        -6.6169767925       -1.0022020356        3.3646711182
 H        -8.3291217329       -1.2343455071        3.6041279632
 H        -7.0781352759       -1.8764441445       -6.3568301156
 H        -8.0247202987       -2.7506096158       -5.1187355446
 H        -6.4832409801       -3.2661405609       -5.5365320680
 H        -4.4974038805       -1.8924215273       -4.6065332961
 H        -4.4644164175       -0.4298459859       -3.7486970165
 H        -4.8905370807       -0.5269151318       -5.4586991582
 H       -12.3520170648        2.2748323766       -2.1620192047
 H       -11.8528090722        3.5744702560       -1.1047187929
 H       -11.3208921694        1.9598687480       -0.7370086141
 H       -11.7275852658        3.4872584398       -4.1074617349
 H       -10.0870254561        4.1013566144       -4.3805079748
 H       -11.1169748921        4.7806027238       -3.1033168645
 H        -6.6912839081        9.4511163294        1.7734237715
 H        -7.8485535509        9.6190932399        0.4086338667
 H        -6.1230942279        9.0428230352        0.1158448033
 H        -5.3622006790        6.8545388153        0.4773668146
 H        -5.9591147474        5.8468126964        1.6923740535
 H        -5.3443054027        7.6284730701        2.1494970326
 H       -12.8185187551        9.2311643579        6.7189827396
 H       -14.2399027100        8.7473543606        5.6587974554
 H       -13.1341749170        9.9971632141        5.1434726594
 H       -12.2766256515        7.0549891742        6.9912357952
 H       -10.8237258176        7.7574707328        6.4950445309
 H       -11.0565964205        6.1633331588        5.9187110768
 H       -11.7860305702        7.6229451261       -0.2990153260
 H       -12.3830705779        9.1142244203       -0.4700442258
 H       -11.9781802492        8.3489038964       -1.9498843862
 H       -14.3022643544        8.4822465226       -2.6965124045
 H       -14.8918811101        9.4561891603       -1.3185976901
 H       -15.7751682813        7.9358268716       -1.7781346158
 Na       -8.3509769608        0.4022525848       -0.8655512119
