117

 C       -15.4130671727        5.4205363037       -1.0221114975
 C       -14.0654113868        6.1296692070       -1.1104242789
 O       -12.9949568497        5.5133960524       -1.4568477097
 C       -13.9886242904        7.6811672026       -0.8298649935
 C       -14.6536808041        7.7825101160        0.6224523262
 O       -15.8266161298        7.9686901243        0.7658040836
 C       -13.7470779375        7.3383158309        1.7698666794
 C       -14.2343859687        7.5615574842        3.1483659908
 C       -13.2867207556        6.9634678029        4.2330280537
 O       -13.1271053577        5.7373955666        4.2707905738
 C       -12.3770606632        7.8240926533        5.1605571087
 C       -11.3243408703        8.4325436754        4.1666399594
 O       -11.6495449423        9.4146585379        3.5005557418
 C       -10.0299765597        7.7191205858        3.9776984045
 C        -9.2073864931        8.1995952706        2.7617720592
 C        -8.2573896055        7.1253760904        2.2184725813
 O        -8.2321502349        5.9832083783        2.6705518332
 C        -7.3229892867        7.4274164252        1.0310149882
 C        -7.8818385904        6.7564001374       -0.3434411089
 O        -7.7477725352        7.4624562584       -1.3158473500
 C        -8.1925676380        5.3508197307       -0.3710759567
 C        -9.1721695780        4.8748490028       -1.4729707153
 C        -9.1450739902        3.3738582691       -1.6988674839
 O        -8.2493065120        2.6841870978       -1.1925951003
 C       -10.2463408165        2.8788531590       -2.6478650745
 C        -9.8472759026        1.5625059983       -3.3097063134
 O        -9.8322565618        0.5575720148       -2.6816485890
 C        -9.4849039813        1.4162754338       -4.8463718076
 C        -8.7171799044        0.1330068958       -4.9952851718
 C        -7.3681670820        0.2107872538       -4.3197462536
 O        -6.9269027797        1.1748727434       -3.7923915166
 C        -6.5075642622       -1.0997875818       -4.3108645634
 C        -6.7747580776       -1.6413099347       -2.8423530727
 O        -7.9098121901       -2.0654439619       -2.5689488258
 C        -5.7043293670       -1.6555305479       -1.7667143982
 C        -6.1370813418       -2.3635679748       -0.4013067911
 C        -6.7439085639       -1.3513591636        0.6333212472
 O        -6.5847947872       -0.1448099415        0.6004017946
 C        -7.7711240203       -1.9449755183        1.6768233936
 C        -9.2153332893       -1.9038261528        0.9967644300
 O        -9.4525086664       -0.9763936864        0.2435782525
 C       -10.1547706648       -2.9773829182        1.3659682763
 C        -7.2287398122       -3.3760942377        2.0224516968
 C        -7.8717563564       -1.0595710103        2.9747666729
 C        -7.0263507343       -2.1784589488       -5.2587283783
 C        -5.0295031359       -0.8226446412       -4.6651324997
 C       -11.5146014943        2.5765335453       -1.7342604686
 C       -10.7223900681        3.9305505367       -3.6991829530
 C        -7.0218974260        8.9514661307        0.6935327413
 C        -5.8665129878        6.8214837269        1.3021870205
 C       -13.3026343197        9.0022968862        5.8662311501
 C       -11.7813953333        6.9598715535        6.2975443578
 C       -12.5326197753        8.0773823746       -0.8817837599
 C       -14.7935185459        8.4863357069       -1.8145554868
 H       -16.1306425790        5.7508077047       -0.2820978943
 H       -15.2967502406        4.3307042747       -0.8213745705
 H       -15.8554057332        5.4226574774       -1.9919038596
 H       -12.7754267212        7.7270141326        1.7133404622
 H       -13.6413098567        6.2345984499        1.5573006825
 H       -15.2596582914        7.1995268963        3.2785056824
 H       -14.2454705401        8.6529786548        3.3286876924
 H       -10.1141345996        6.5990420100        3.9726878767
 H        -9.4734225260        7.7473060771        4.9032304231
 H        -8.7083373826        9.1754254672        3.0109218058
 H        -9.8710548006        8.4137091584        1.9265985306
 H        -8.3845910432        5.0343334879        0.6232935489
 H        -7.2177222709        4.8385945835       -0.5672019063
 H        -8.8577851118        5.2892677241       -2.3828194865
 H       -10.2467638176        5.1933286155       -1.3733806335
 H        -8.9618117817        2.3191572399       -5.2153718292
 H       -10.4364943588        1.3382447641       -5.3338318778
 H        -8.5429326302        0.0041865871       -6.0846028959
 H        -9.2969663094       -0.6849684101       -4.5917426889
 H        -5.4836268123       -0.6079721936       -1.5447703343
 H        -4.7587469291       -2.0277618103       -2.1775207290
 H        -5.4051370140       -2.9874228884        0.1219599448
 H        -7.0055682528       -3.0375832757       -0.7254458594
 H       -10.2369729573       -2.9253224605        2.3936025952
 H        -9.8279440396       -3.9668589087        1.0445694743
 H       -11.1369679115       -2.7951729548        0.8900818587
 H        -7.2982732348       -3.9710768450        1.1359523965
 H        -7.9463216144       -3.7268596039        2.7809754182
 H        -6.2374290004       -3.3203739958        2.4291188063
 H        -8.2789459609       -0.0988492475        2.6102162007
 H        -6.8723698906       -0.9257340905        3.5766043948
 H        -8.5328848550       -1.5108046683        3.6700323625
 H        -6.9994524060       -1.9632802959       -6.3064900619
 H        -8.0038597342       -2.5125850359       -5.0885500183
 H        -6.3916197045       -3.0642716828       -5.1934472439
 H        -4.1635305683       -1.4080191236       -4.4139335484
 H        -4.7107807716        0.1937605642       -4.3830744393
 H        -4.9947675448       -0.7465582499       -5.7711955292
 H       -12.2956569946        2.0703519296       -2.3574488302
 H       -11.8854092047        3.5068989723       -1.2733560307
 H       -11.2606461424        1.9415591611       -0.9073710150
 H       -11.3271589459        3.3988964673       -4.4574606584
 H        -9.8646044179        4.1907066043       -4.3146021536
 H       -11.2559160388        4.7741368540       -3.2969023421
 H        -6.5469625217        9.5046499408        1.5085577550
 H        -7.9379011209        9.4438585004        0.3787584035
 H        -6.4071580014        9.0028996351       -0.1838278184
 H        -5.1800611637        7.1256633488        0.5824456792
 H        -5.8921229285        5.7645662511        1.3565323879
 H        -5.5626606527        7.3148451161        2.2081445517
 H       -12.8635409300        9.1717981489        6.8381343887
 H       -14.3528292019        8.7533960727        5.9953838392
 H       -13.1382332949        9.9412935364        5.3865192609
 H       -12.5300861835        6.4936301767        6.9124761171
 H       -11.2021420819        7.5570239180        6.9992040971
 H       -11.1381539435        6.1926574033        5.9266905065
 H       -11.8848703790        7.4177279220       -0.2727398764
 H       -12.2748320341        9.0536222141       -0.5292845374
 H       -12.1415024731        8.0191807321       -1.8844609828
 H       -14.7801792810        8.0543832864       -2.7670990038
 H       -14.1913881708        9.3901864488       -1.9771305006
 H       -15.7934416127        8.6788873179       -1.4609215456
 Na       -8.1383640572        0.4276270938       -1.2206705634
