117

 C       -14.5900216260        5.6527182453       -2.2459397331
 C       -13.4538634259        6.3485565145       -1.5655318083
 O       -12.4705158497        5.7296533782       -1.1497689020
 C       -13.5436508240        7.9158608186       -1.2266902601
 C       -14.0362201945        8.0919310061        0.2806770668
 O       -15.0707384434        8.6522810442        0.5088741227
 C       -13.0893072033        7.5273234994        1.3909817584
 C       -13.9133494838        7.2412111628        2.7118445648
 C       -12.9708788456        6.9251420894        3.8421630571
 O       -12.7556854314        5.7729113357        4.1397440351
 C       -12.3796505107        8.1335654827        4.6892344847
 C       -11.2052186050        8.5962593170        3.7957642306
 O       -11.4587557043        9.5388386997        3.0570444476
 C        -9.8346702286        7.9437013296        3.8969626015
 C        -8.9322856541        8.3860741151        2.7467320362
 C        -8.2620972721        7.2282503435        2.0524344134
 O        -8.4723115506        6.0791692479        2.3850777290
 C        -7.3951927049        7.5221557893        0.7679728797
 C        -8.1703411792        6.8718374943       -0.3561721623
 O        -8.9014518247        7.5602871727       -1.0660837275
 C        -7.9790005963        5.3529046691       -0.6876303179
 C        -8.9621281320        4.7995334656       -1.7200794855
 C        -9.4032157732        3.3963210130       -1.4754115608
 O        -8.7179851178        2.7029087123       -0.7170045248
 C       -10.7084209192        2.7628971165       -2.3210546249
 C       -10.1459586956        1.5416493581       -3.0719823672
 O       -10.0176701724        0.5051255602       -2.5216885506
 C        -9.5781371167        1.7287398158       -4.4735764724
 C        -8.9867563743        0.4177336940       -4.8699763323
 C        -7.7203122231        0.0693530308       -4.0417573015
 O        -7.2149643922        0.9234928064       -3.3029264513
 C        -7.1277788701       -1.3668614513       -4.0257601284
 C        -7.2370403036       -1.8655494734       -2.5438564952
 O        -8.2944130518       -1.7934970161       -1.9555720058
 C        -5.9508199738       -2.4647847793       -1.7393943884
 C        -6.3425610011       -2.8672593470       -0.3322084430
 C        -6.7182192618       -1.7647810500        0.5742415734
 O        -6.4083627803       -0.6045814925        0.2995670334
 C        -7.3934017712       -2.1401503525        1.9234104329
 C        -8.8605960026       -2.3946736226        1.4811281863
 O        -9.4053472941       -1.5993503995        0.7553623194
 C        -9.5262244387       -3.6923370102        1.9898842537
 C        -6.6778955931       -3.2778372092        2.6075964042
 C        -7.4184649564       -0.8831083715        2.8880511052
 C        -7.8345537816       -2.3435264884       -5.0517612641
 C        -5.6614948404       -1.2613507266       -4.5546133335
 C       -11.7812339406        2.5565941651       -1.2333671601
 C       -11.1672029777        3.8088822928       -3.3519084864
 C        -7.2469854663        9.1277319104        0.4293802423
 C        -5.9728412567        6.8604439280        0.9093970936
 C       -13.3720346098        9.2651843188        4.9601128330
 C       -11.7446071817        7.6395652430        6.0786383295
 C       -12.1698835644        8.4644589225       -1.3759499798
 C       -14.5439982745        8.6707442191       -2.1029198856
 H       -15.4893483111        5.4728372833       -1.6261464766
 H       -14.3102886687        4.6918888805       -2.6802734428
 H       -15.1466862493        6.1512517747       -3.0727958767
 H       -12.3084417287        8.2786496430        1.5155864238
 H       -12.6517749636        6.5754915314        1.0474776844
 H       -14.5795728235        6.3906070343        2.6436767945
 H       -14.5049439621        8.1139129189        2.9611421108
 H        -9.9419895068        6.8457247856        3.8062451962
 H        -9.3909303220        8.3243614538        4.7972130018
 H        -8.1108541117        9.0607754082        3.0843611313
 H        -9.5324669140        9.0140951654        2.1217761930
 H        -8.0632374080        4.7433760635        0.1742715024
 H        -6.9085402620        5.1874666085       -1.1071634273
 H        -8.4457321719        4.7868991650       -2.6746959944
 H        -9.8051048545        5.5234934239       -1.8590443799
 H        -8.7691729689        2.4766231855       -4.2953995853
 H       -10.3010263959        2.1419965013       -5.1669361989
 H        -8.7442860657        0.3702910582       -5.8476721698
 H        -9.7207347817       -0.4416245447       -4.7442426977
 H        -5.2782248038       -1.6237984812       -1.7156452059
 H        -5.4373546077       -3.2911080421       -2.3137907150
 H        -5.4650021189       -3.2920181805        0.1416891006
 H        -7.0920525180       -3.6629940082       -0.4229469804
 H        -9.8622394062       -3.5115449872        3.0447934609
 H        -9.0047795887       -4.6318406387        1.9291302775
 H       -10.4585572567       -3.7185760928        1.4461977394
 H        -6.7113873132       -4.1865716014        1.9701247310
 H        -6.9985458084       -3.4379554849        3.6243291076
 H        -5.6328701516       -3.1195081505        2.5728664613
 H        -7.9182286082       -0.0170099540        2.5170914318
 H        -6.4924281405       -0.6136273431        3.2099588704
 H        -7.8936557401       -1.2380256535        3.8448483671
 H        -7.6693103051       -1.9952979168       -6.0426565320
 H        -8.8969327105       -2.3859877883       -4.9858971364
 H        -7.4681162433       -3.3268137998       -4.9818688541
 H        -5.0774885647       -2.2027946702       -4.4780979481
 H        -5.2149708721       -0.4956930949       -3.9397234266
 H        -5.5743501916       -0.9246017350       -5.6029954098
 H       -12.7321737698        2.1403142716       -1.6234340740
 H       -11.9792100411        3.4967263897       -0.7667687481
 H       -11.4066328493        1.7599527158       -0.5589249479
 H       -11.8214193827        3.2882106983       -4.0302501113
 H       -10.4040969508        4.3138057089       -3.9095797529
 H       -11.7796982771        4.6134614705       -2.8308677353
 H        -6.7511555785        9.4987207594        1.2606841553
 H        -8.1664942847        9.6196356347        0.3104699700
 H        -6.6485855562        9.3327637075       -0.4545071103
 H        -5.3380594462        7.1387471808        0.0574846736
 H        -6.0221061525        5.7486179094        0.9760377603
 H        -5.3878208113        7.1813079286        1.7477453429
 H       -14.0240927633        9.5648939953        4.2077218480
 H       -12.8602770832       10.1645368798        5.3006439331
 H       -13.9934018252        8.8819121418        5.7678409094
 H       -12.5041297026        7.1943553541        6.7136295821
 H       -11.3524153973        8.4839937359        6.7033969973
 H       -11.0383688605        6.8454998497        6.0068264174
 H       -11.3983283831        7.8570212509       -0.9030921447
 H       -12.1593928435        9.5548682095       -1.0620414141
 H       -11.8279134879        8.4218492904       -2.3816340244
 H       -14.1336008582        8.7393295397       -3.1617672986
 H       -14.6655376796        9.6726892298       -1.7670996156
 H       -15.4661772768        8.0954463961       -2.1350391787
 Na       -8.7483032234        0.2797244573       -0.3619392040
