117

 C       -14.9217426357        5.6554945993       -1.8339781684
 C       -13.5571434663        6.2297887361       -1.3863342352
 O       -12.5513070300        5.5963419824       -1.3062826598
 C       -13.5839678930        7.8129344014       -1.1174391594
 C       -14.0904619628        7.8658214993        0.3543078844
 O       -14.9965293212        8.5486451947        0.7536947038
 C       -13.2214201293        7.1671173767        1.4299604712
 C       -13.9388029977        7.2361636625        2.7200221664
 C       -13.1893656932        6.8589034055        3.9907495646
 O       -12.9803356706        5.6998669395        4.3108881376
 C       -12.3902394226        7.9865537501        4.7691691979
 C       -11.2919664753        8.5916191992        3.8451794070
 O       -11.6036396177        9.5148822400        3.1174073758
 C        -9.8396889862        8.0270132167        3.8666587786
 C        -8.9733913147        8.5160210786        2.6252302814
 C        -8.2836196394        7.3589035523        1.9994394834
 O        -8.5390625599        6.2006359427        2.2278022801
 C        -7.2850858719        7.5886084786        0.8460559831
 C        -7.9973183659        6.8555933644       -0.3660116481
 O        -8.7971777285        7.5577029121       -0.9726234682
 C        -7.8272189444        5.3616852766       -0.7374096792
 C        -8.8563575825        4.8729980094       -1.7591278412
 C        -9.2227400745        3.4359495451       -1.4987162709
 O        -8.5747119851        2.7303809028       -0.7994225919
 C       -10.5218685548        2.9217939549       -2.3658555082
 C       -10.1131272443        1.5471984190       -3.0769396737
 O       -10.0404761379        0.5119075179       -2.4711520947
 C        -9.7422922524        1.5691439567       -4.6269161217
 C        -8.8066084801        0.4211939726       -4.9444017321
 C        -7.5868241459        0.2169778696       -4.1076653407
 O        -7.0070704555        1.1126395889       -3.4662593247
 C        -6.9592946512       -1.2798412404       -3.9337986884
 C        -7.0427343453       -1.7104299599       -2.4678722942
 O        -8.0463803050       -1.6092892478       -1.8136791385
 C        -5.8033980625       -2.4990531434       -1.9221073175
 C        -6.0912483117       -2.8932460156       -0.4471691716
 C        -6.7311800441       -1.7621977896        0.3391091012
 O        -6.6533681647       -0.6106114780       -0.0614364712
 C        -7.5210335948       -2.1211921176        1.6771760347
 C        -9.0086289051       -2.3196931526        1.3989584296
 O        -9.6484741499       -1.4189365347        0.9066352257
 C        -9.7140789700       -3.6929654434        1.7556086649
 C        -6.8904603866       -3.3709495675        2.4065643133
 C        -7.3548221938       -0.9321153760        2.6138167985
 C        -7.6707969368       -2.3408286089       -4.7166570828
 C        -5.4561818393       -1.1511907741       -4.3936588540
 C       -11.6633250198        2.6432320253       -1.2870470588
 C       -11.0642495433        3.9664464431       -3.4106428255
 C        -7.0080968670        9.1325629825        0.4573460526
 C        -6.0029803193        6.7211762116        1.1986175597
 C       -13.4476012183        9.1002361244        5.1767783769
 C       -11.7747245335        7.4561877790        6.0797351248
 C       -12.3083945771        8.5706496755       -1.3880170052
 C       -14.6709432607        8.5086622118       -2.0075585016
 H       -15.8463213826        5.9800315416       -1.5068336150
 H       -14.9630965044        4.5601196146       -1.8312782340
 H       -15.0514479477        5.9034360973       -2.8640665321
 H       -12.1824749618        7.6318000816        1.5523677909
 H       -13.1111262107        6.1569672736        1.1295300813
 H       -14.8258350912        6.5699872151        2.6518712110
 H       -14.2462735406        8.2696628749        2.9114256625
 H        -9.8911544532        6.9435625730        3.7652164476
 H        -9.3036172722        8.3526970529        4.7203930174
 H        -8.1753217439        9.2160927074        3.0291580710
 H        -9.5071398878        9.1177654334        1.8780497876
 H        -8.1708724596        4.8592834344        0.1670864602
 H        -6.7735310007        5.1664392772       -1.0305968402
 H        -8.4128474886        4.9897122078       -2.7979230801
 H        -9.6665792786        5.5664909900       -1.6841909096
 H        -9.2706407618        2.5315775007       -4.7594677587
 H       -10.6031962983        1.4585571572       -5.2548068347
 H        -8.4906702696        0.5242563348       -5.9982317589
 H        -9.3362215768       -0.5683643160       -4.9553377970
 H        -4.9591936745       -1.8779092634       -1.9665510803
 H        -5.5954114243       -3.2495832485       -2.6660090162
 H        -5.0940567233       -3.0591197926        0.0570779253
 H        -6.7245205739       -3.7636637207       -0.3847259572
 H        -9.4887046518       -4.0145414624        2.7929317071
 H        -9.2888561516       -4.4258135589        1.1284578863
 H       -10.8248193934       -3.6746591550        1.6297894941
 H        -6.8361785328       -4.3066369826        1.7782888766
 H        -7.5022067073       -3.5173293235        3.2682380466
 H        -5.8583964463       -3.1408165457        2.7581363505
 H        -7.7622739408        0.0266950334        2.1610751371
 H        -6.3379194860       -0.7575028728        2.7773556926
 H        -7.8928245692       -1.0919674435        3.5810446679
 H        -7.9582128663       -2.2503093554       -5.7872792189
 H        -8.6233912972       -2.7381077213       -4.2219195062
 H        -6.9942128017       -3.2217420881       -4.6989132913
 H        -5.0278961120       -2.1420896154       -4.5598816214
 H        -4.7408569268       -0.4888668751       -3.8077145684
 H        -5.4966088172       -0.7081499884       -5.3780205814
 H       -12.5014201389        2.0657021987       -1.5902577731
 H       -12.0047238031        3.6012545930       -0.9349165912
 H       -11.1634336749        2.0627134761       -0.4858493489
 H       -12.0163161498        3.6499007481       -3.7855930359
 H       -10.2936141995        4.0722025306       -4.1762336154
 H       -11.1858853027        4.9742386183       -3.0128805979
 H        -6.6647732476        9.7992382837        1.3014719575
 H        -7.9167567278        9.5833458560       -0.0255830364
 H        -6.1870299947        9.0138716802       -0.2906901631
 H        -5.3828605052        6.3841484005        0.3086092629
 H        -6.2899176891        5.8529636560        1.7990021438
 H        -5.4060719508        7.2962587201        1.9102699344
 H       -13.0906292487       10.1055733326        4.8880479243
 H       -13.4449697501        9.1788867136        6.2727133536
 H       -14.5084435459        8.9608995902        4.8639683305
 H       -12.5209866013        7.1038474164        6.7945094408
 H       -11.1031352680        8.2103497049        6.4844003136
 H       -11.1314966920        6.5626205883        5.9831712504
 H       -11.3918440952        8.1335513716       -1.0624750786
 H       -12.4098696876        9.5821476667       -0.9721375968
 H       -12.1585740899        8.7248662096       -2.4560425519
 H       -14.6330671305        8.2378552782       -3.0553575886
 H       -14.6247093818        9.5983093903       -1.8458352697
 H       -15.6196497674        8.1634098353       -1.5816169146
 Na       -8.8894390440        0.3173798242       -0.4366611084
