117

 C       -14.2881068599        5.8914673742       -2.5339392581
 C       -13.3452587158        6.5250846316       -1.5498821255
 O       -12.4715941059        5.8713343644       -0.9932150174
 C       -13.4209579035        8.0937687079       -1.2476834528
 C       -14.0848475351        8.1715867214        0.1687283322
 O       -15.3019406415        8.3512018397        0.2773692397
 C       -13.1815831636        7.8722921719        1.2594823307
 C       -13.8756417476        7.2853594016        2.5130015100
 C       -12.8390615690        7.0399201590        3.6168921972
 O       -12.3788852374        5.9358758592        3.8653386308
 C       -12.3161295338        8.3187125353        4.6509688443
 C       -11.0632118126        8.7483523937        3.8870835806
 O       -11.0435558819        9.7441083407        3.1594931019
 C        -9.8398362615        7.8180010170        3.9843560860
 C        -8.7690069615        8.3505593547        3.0013892626
 C        -7.9981022145        7.2559116064        2.0665171276
 O        -8.1346471455        6.0928909863        2.3357461291
 C        -7.2921761747        7.6512469721        0.7052360846
 C        -8.2280264681        6.8470205358       -0.4151411967
 O        -8.8650830746        7.5476119973       -1.1871495829
 C        -8.2689540781        5.2734520361       -0.4351154390
 C        -9.5205589483        4.7388937869       -1.2022165158
 C        -9.6136971439        3.2383815882       -1.2678624996
 O        -8.8238446982        2.5029518897       -0.6904570577
 C       -10.8121674475        2.6339628784       -2.2407876106
 C       -10.2017558762        1.3561848503       -3.0226089834
 O       -10.0910216289        0.3123230833       -2.5072047633
 C        -9.8340779257        1.5147302068       -4.5079821855
 C        -8.9821026980        0.3251147359       -4.9000156316
 C        -7.8152506643       -0.0821890306       -3.9767493728
 O        -7.4377634919        0.7312999592       -3.1181362081
 C        -7.1697204800       -1.5246017862       -3.9835985782
 C        -7.3688536019       -2.0362186787       -2.5075574604
 O        -8.4753094531       -2.1774299665       -2.0417437615
 C        -6.0034395641       -2.2085728787       -1.7226839995
 C        -6.1882551647       -2.7448835877       -0.2769161387
 C        -6.7117931739       -1.6913669334        0.7148366150
 O        -6.6432265203       -0.5107017296        0.3047663205
 C        -7.3446718272       -1.9500071473        2.0952784705
 C        -8.8732710984       -2.3427199654        1.6871467223
 O        -9.4832903216       -1.6600409377        0.9025147927
 C        -9.5168716375       -3.5812643770        2.3619535242
 C        -6.6058885656       -3.2043904934        2.7291089140
 C        -7.3658495221       -0.7322281833        2.9623654704
 C        -7.8894974107       -2.5362449581       -4.7997022496
 C        -5.7208019129       -1.3919427485       -4.5785993827
 C       -11.9748634994        2.1712475370       -1.2965168988
 C       -11.3542688845        3.6150261954       -3.2038887457
 C        -7.3530445623        9.1350232709        0.3988552242
 C        -5.9069647945        7.0168656437        0.6722848968
 C       -13.2872553758        9.5183893003        4.6762301065
 C       -12.0644900231        7.7168840573        6.0569922617
 C       -11.9321795761        8.6185866348       -1.3385792451
 C       -14.2770359247        8.9563860445       -2.2967990882
 H       -15.2264845516        6.3484797772       -2.7594583014
 H       -14.5783857730        4.7980504148       -2.3888953652
 H       -13.8711557336        5.7535276835       -3.5489153228
 H       -12.6822407735        8.8517417589        1.3854575858
 H       -12.4147984335        7.1879005408        0.9324627463
 H       -14.3155843060        6.3108669411        2.3502368047
 H       -14.6766962167        7.9596029790        2.8234383624
 H       -10.0830667019        6.7624893282        3.5845453877
 H        -9.3429212785        7.7434067000        4.9694954189
 H        -7.9835561903        8.8597041600        3.5911532935
 H        -9.1739280317        9.1139248228        2.3810957671
 H        -8.1733984638        4.8969347465        0.5313911839
 H        -7.3465155247        4.7880620909       -0.9045155821
 H        -9.5867419836        5.1144464425       -2.1948654837
 H       -10.4401292115        5.1297830106       -0.7419305381
 H        -9.4482188379        2.5427837349       -4.7395298311
 H       -10.7667187355        1.4532483251       -5.0888656469
 H        -8.6148427969        0.4817458769       -5.8558953220
 H        -9.5763736393       -0.6074802799       -5.0257237471
 H        -5.4772659264       -1.2369010521       -1.7553637418
 H        -5.4322292742       -2.9988265788       -2.3533526610
 H        -5.2732858583       -3.3085443830       -0.0996363902
 H        -6.9446004450       -3.5678112264       -0.3437695024
 H        -9.4179170578       -3.5087917530        3.4387567868
 H        -9.0456906365       -4.4410852220        2.0549978949
 H       -10.6109368516       -3.6127184208        2.1318063119
 H        -6.4918332744       -4.1289121971        2.1015709976
 H        -7.0667651000       -3.5188143222        3.6417071616
 H        -5.6096741897       -2.9320650297        3.0558840864
 H        -7.9498403118        0.0712171556        2.4293599636
 H        -6.4284418890       -0.3642561039        3.2876942396
 H        -7.8749273313       -0.9591349203        3.9033319692
 H        -7.7845124034       -2.2194797301       -5.8433459045
 H        -8.9712866339       -2.6052500642       -4.5760528400
 H        -7.4744409604       -3.5220735971       -4.7222504666
 H        -5.1990560599       -2.3344805274       -4.3153413390
 H        -5.1160951519       -0.5017701989       -4.1854559802
 H        -5.8066511237       -1.4269957008       -5.6594365811
 H       -12.8320372595        1.7656809300       -1.8294564146
 H       -12.2706927554        2.9885855826       -0.6697732023
 H       -11.5447632742        1.3873250958       -0.6456867322
 H       -11.8270859328        3.2040571924       -4.0792208567
 H       -10.5153440036        4.1739521101       -3.6191832782
 H       -11.9896057038        4.3662923592       -2.6811933263
 H        -7.1758083577        9.6312247794        1.3580568958
 H        -8.3703560443        9.3537030720        0.0641130504
 H        -6.6813983640        9.5268445518       -0.3759612998
 H        -5.5646412893        7.0379318953       -0.3603490598
 H        -5.8783647983        6.0152353432        0.9646105892
 H        -5.1369716503        7.5376320237        1.1277720623
 H       -13.2752648842       10.0475320886        3.7352782297
 H       -12.9559649183       10.2095551054        5.4538903435
 H       -14.3428574759        9.2936439385        4.8520995144
 H       -12.8804616675        7.5683851776        6.7228307122
 H       -11.3783466781        8.2902391095        6.6750043316
 H       -11.5537686709        6.8076622225        5.8235503737
 H       -11.1573599090        7.9870547061       -0.9260854747
 H       -11.8718427634        9.5950921727       -0.8162558795
 H       -11.7368805969        8.7670939536       -2.3968103802
 H       -14.0097700247        8.8759857953       -3.3187013957
 H       -14.2132366024       10.0313458203       -2.0524623683
 H       -15.3014984729        8.6609322353       -2.1363237712
 Na       -8.4302112487        0.1048371829       -0.9301639496
