117

 C       -14.8097498894        3.4294210016        0.4732601870
 C       -13.6773312422        2.5572770225       -0.1048748485
 O       -12.6798391676        3.0032465388       -0.6252830977
 C       -13.6512799731        1.0086372873        0.2684779106
 C       -12.2724264564        0.2218808786       -0.0605979817
 O       -11.6373632489        0.5208951442       -1.0813058553
 C       -11.5903055339       -0.7048807774        0.9014537081
 C       -10.3895882983        0.1889273732        1.4807459697
 C        -9.2793151522       -0.5336669477        2.4074805954
 O        -9.3814846662       -0.9592341167        3.5293226782
 C        -7.9903123582       -0.9784187580        1.6552202787
 C        -7.6000759131        0.1755348182        0.5064071566
 O        -7.1763602828        1.2535199603        0.6913479198
 C        -7.7399291833       -0.3894604763       -0.9586910399
 C        -7.5464267113        0.7266958702       -1.9500362591
 C        -8.1090146581        0.6159322326       -3.3605861166
 O        -9.2940458593        0.2383641904       -3.5057505959
 C        -7.2149837243        0.6544295408       -4.6063302775
 C        -7.0132374153        2.1435520690       -5.2433560702
 O        -6.2698532961        2.8758835877       -4.5622373197
 C        -7.7448392283        2.6475141591       -6.4626083080
 C        -8.2410524109        4.0451216862       -6.4063581010
 C        -9.3669268299        4.0960021213       -5.1476493112
 O        -9.9132141473        2.9937427560       -4.8651283045
 C        -9.3745708929        5.3602253893       -4.1804430056
 C        -9.3303953651        4.7920984880       -2.6125728633
 O       -10.1441165050        3.8984086974       -2.4012777114
 C        -8.3072306369        5.5175169348       -1.6748483353
 C        -8.5418079154        5.1074528822       -0.2231811393
 C        -8.3039788599        6.2837245092        0.7458876352
 O        -8.7684210908        7.3309542744        0.4110706030
 C        -7.6501929730        5.9048001745        2.1768587799
 C        -8.7631214294        5.6394371096        3.2667912109
 O        -8.9459973825        4.4973013756        3.5573199512
 C        -9.4389222563        6.7979331889        3.9821862016
 C       -10.3809286482        7.6226465893        3.0820776633
 C       -11.2162659385        8.6851478135        3.9185131864
 O       -10.8986790529        9.1053453692        5.0513571628
 C       -12.7783993647        8.9536716842        3.4765261665
 C       -13.6008848741        7.7816853184        4.2733635212
 O       -14.2416686091        7.0190769440        3.4954370414
 C       -13.3731169019        7.4903039342        5.7830421259
 C       -13.2928855568       10.3583183335        4.1290498093
 C       -13.1996244267        8.8655258412        1.8807748297
 C        -6.6809100357        4.7505365573        2.0713171424
 C        -6.7936707993        7.0845096954        2.6354727739
 C        -8.0782835768        6.2663940693       -4.3568036182
 C       -10.5221870958        6.4294576833       -4.5171809114
 C        -5.7986906008        0.1352656275       -4.3492811951
 C        -7.9199487857       -0.2829123399       -5.7971577564
 C        -6.7910244600       -1.0655467516        2.5017895556
 C        -8.3012635614       -2.3761182616        0.9995324467
 C       -13.7640487768        0.9167302259        1.9376120280
 C       -14.8864141116        0.3712589938       -0.4322791104
 H       -15.6890950549        2.8821088236        0.5286429770
 H       -14.9169587747        4.3664655439       -0.0392334714
 H       -14.6830170404        3.6533908058        1.5288648128
 H       -11.1426526889       -1.2246740043        0.0938395389
 H       -12.2635282617       -1.1426705984        1.5311134546
 H       -10.8659170360        1.0765185929        2.1205427470
 H        -9.9046134962        0.6962134039        0.6222248254
 H        -8.6836938086       -0.7907378428       -1.1824947688
 H        -7.0196341347       -1.1334618510       -1.0603226407
 H        -6.4295202957        0.8643660305       -1.9240984572
 H        -7.8448129635        1.6492842933       -1.4299393838
 H        -8.6258026547        2.0001580883       -6.6564333242
 H        -7.0107652572        2.4030759255       -7.2500743503
 H        -8.5868627706        4.4372902019       -7.3089793955
 H        -7.3848452831        4.6134100317       -6.0074056222
 H        -8.4703213392        6.5470859230       -1.8604208085
 H        -7.3517351840        5.0376515089       -2.1694194826
 H        -8.0751633502        4.1492429488        0.1099260252
 H        -9.5853967049        4.8881064292       -0.1150599196
 H        -8.6097876056        7.3099335559        4.4449275172
 H       -10.0316997653        6.2636643564        4.7077903892
 H       -10.9843649391        6.8999053517        2.5594143415
 H        -9.7258356747        8.0829242708        2.2967447993
 H       -13.5095294343        6.5084219162        6.1645196694
 H       -13.9374054297        8.1657647559        6.4815721068
 H       -12.4871582335        7.9576323254        6.0854415007
 H       -14.3747338619       10.2197685763        4.4413932748
 H       -13.1834598462       11.0294280861        3.2728830240
 H       -12.5533206377       10.5974886029        5.0208462044
 H       -13.3751634234        7.7776761175        1.5764364428
 H       -12.3268503762        9.2294132678        1.2547319094
 H       -13.9121244405        9.4389497363        1.4622861426
 H        -6.1592828246        4.5726053581        3.0085445271
 H        -5.8647362324        4.9119286714        1.3212261018
 H        -7.0840387415        3.8426657741        1.9432235113
 H        -6.4829229482        7.0795941112        3.7017629674
 H        -7.0328748958        8.1417881011        2.4167394453
 H        -5.8908335706        7.1054224029        2.0580003832
 H        -8.2134326585        6.9412250032       -5.2358017734
 H        -7.2251667349        5.6934957917       -4.3656711896
 H        -7.9384504637        6.9047153337       -3.4903556551
 H       -10.3448021047        7.3965589457       -4.0856722799
 H       -11.5623029547        6.1356045398       -4.3048812304
 H       -10.4380751771        6.5849592510       -5.5849625953
 H        -5.3329760791        0.8677303713       -3.6988474419
 H        -5.3794494532        0.1266542086       -5.3341461293
 H        -5.7681973455       -0.7905168051       -3.8319464370
 H        -7.9423703724       -1.3140201102       -5.4757784237
 H        -7.4779814122       -0.3366088096       -6.8064150828
 H        -8.9787685827        0.0304431045       -5.8902173220
 H        -5.9012884937       -1.6832869794        2.1261968572
 H        -6.8869671631       -1.4688590735        3.5037162026
 H        -6.5809506288        0.0023446605        2.6573241613
 H        -8.7675893678       -3.2335739655        1.5615921186
 H        -7.4244506649       -2.8065055149        0.5649229651
 H        -8.7879123031       -2.2088374591       -0.0456337138
 H       -14.2509134683        1.8890058967        2.2360506872
 H       -12.8172615728        0.8766053390        2.4153491732
 H       -14.2660305004        0.0234447267        2.2908654928
 H       -15.6253933046        0.2279768125        0.3176439071
 H       -14.4883060895       -0.4743269963       -0.9565890132
 H       -15.2537332039        1.0773819422       -1.2291635960
 Na      -11.0834372478        2.0029584084       -2.7371221948
