117

 C       -14.2704910581        6.2406718387       -2.7869647695
 C       -13.2528916480        6.7261641839       -1.7685565711
 O       -12.4349624690        5.9827659147       -1.2958179783
 C       -13.2940755530        8.2479392709       -1.3761147211
 C       -14.0858545045        8.1709244173        0.0210493500
 O       -15.2888080652        7.9803972916        0.0575193306
 C       -13.1760805780        8.1845886855        1.1739129224
 C       -13.7972542962        7.4509953328        2.4002009587
 C       -12.7270483195        7.2384958997        3.4970036871
 O       -12.1759651086        6.1600988902        3.7394054927
 C       -12.2846454584        8.4281430963        4.4523768661
 C       -10.9009507129        8.8510348975        3.7835128008
 O       -10.8058638725        9.9326484453        3.2970684820
 C        -9.6978725188        7.9310091196        3.9605360099
 C        -8.5851082486        8.2691399579        2.9884900292
 C        -7.9360564250        7.1203188247        2.1649053033
 O        -7.8023995546        6.0095622368        2.6007578911
 C        -7.5503626734        7.3457860315        0.7166417499
 C        -8.4127546173        6.5745894166       -0.3137715204
 O        -8.9949227411        7.1390927831       -1.2152103241
 C        -8.4647166462        5.0410328193       -0.1141065537
 C        -9.7037901446        4.5785901562       -0.9843137282
 C        -9.6528273784        3.1488467877       -1.3656972001
 O        -8.8332071673        2.4011431110       -0.8491395344
 C       -10.8729211894        2.5196316419       -2.1615195750
 C       -10.3509820229        1.2541588047       -2.9948678530
 O       -10.4965638415        0.1793981155       -2.5234824741
 C        -9.7606233373        1.4420777389       -4.3779636645
 C        -9.0687225792        0.1404758187       -4.6730257884
 C        -7.8824979590       -0.2387686664       -3.7480425230
 O        -7.5607459448        0.5415823084       -2.8603838312
 C        -7.1929424982       -1.6652332164       -3.8560022362
 C        -7.1338963046       -2.2148335262       -2.4162914763
 O        -8.1790190479       -2.4798037319       -1.8742042659
 C        -5.7629275898       -2.3217424292       -1.6518199093
 C        -5.8037250232       -2.6055011395       -0.1625410166
 C        -6.5883821328       -1.4638085096        0.6223759799
 O        -6.4756041907       -0.3189048030        0.0922815175
 C        -7.3497207314       -1.8622193136        1.9089002919
 C        -8.8733879000       -2.0081037193        1.6865977131
 O        -9.4828559880       -1.3238090345        0.8767725082
 C        -9.6674005479       -2.9779875025        2.5285588950
 C        -6.7546754837       -3.1164761251        2.5812947272
 C        -7.2367618200       -0.6213130383        2.9359097117
 C        -7.9848079444       -2.8212715484       -4.6671651865
 C        -5.8944622986       -1.4150470788       -4.6371944553
 C       -11.9181829844        2.1528664651       -1.0432426528
 C       -11.5177513534        3.5328262513       -3.0596549481
 C        -7.5273177974        8.8117024422        0.2022592054
 C        -6.1393487884        6.7387762429        0.6520394591
 C       -13.1510268170        9.6440583622        4.5792064960
 C       -12.0320462296        7.7564040711        5.8387805162
 C       -11.8990816418        8.8466545946       -1.3222369262
 C       -14.1360357252        9.2109023207       -2.3439463693
 H       -14.6991254096        7.0199558892       -3.3314835790
 H       -15.2253979020        5.7663388543       -2.4457162353
 H       -14.0115009136        5.4900920056       -3.4973907013
 H       -13.1735452632        9.2859038569        1.3461391309
 H       -12.1603548077        7.9482766700        0.9491130182
 H       -14.1714113221        6.4608971583        2.0888808073
 H       -14.7105586524        7.9649858706        2.7756815924
 H       -10.0723413929        6.8307410258        3.9509210542
 H        -9.3937815700        8.0054804941        5.0274958920
 H        -7.7111579870        8.6671108120        3.5635220457
 H        -8.9181442527        9.0976245664        2.3996218468
 H        -8.4572254096        4.7081498745        0.8749979404
 H        -7.5322977045        4.4830427420       -0.4671162411
 H        -9.7929707363        5.1641140578       -1.8754837584
 H       -10.6489421073        4.8000714760       -0.4742833499
 H        -9.1522098235        2.3858197323       -4.4010113371
 H       -10.5270480225        1.6357803091       -5.1111333745
 H        -8.7490877568        0.0869762753       -5.6997519245
 H        -9.7392875201       -0.6857672691       -4.5026873083
 H        -5.2254690856       -1.4063814466       -1.9252843191
 H        -5.3643537381       -3.2500009230       -2.1861096396
 H        -4.7788654019       -2.7483165901        0.2164951106
 H        -6.1404860644       -3.6487934394       -0.0922604907
 H        -9.2795853599       -2.9609392132        3.5326941220
 H        -9.5782652094       -3.9543706672        2.1692115420
 H       -10.7644805245       -2.6948239024        2.5522659478
 H        -7.0357976399       -4.0494373276        2.0724061664
 H        -7.1549523812       -3.3218698927        3.5472886140
 H        -5.6856520627       -3.0383628027        2.8274171584
 H        -7.5740385805        0.3831485067        2.4797121444
 H        -6.1671602654       -0.4922527491        3.2768988140
 H        -7.9061170373       -0.7217491740        3.7449316726
 H        -8.3502567851       -2.3320947902       -5.6034511140
 H        -8.8313006200       -3.1976093477       -4.0049565029
 H        -7.3567100654       -3.6928317528       -4.9417002847
 H        -5.5436857114       -2.4419617130       -4.7696779303
 H        -5.1343845296       -0.9129729514       -3.9255631914
 H        -6.1062087897       -0.9030862878       -5.5450607711
 H       -12.6506269618        1.5721474512       -1.5450898983
 H       -12.4079047179        3.0194407682       -0.5953340914
 H       -11.4329366653        1.6171192329       -0.2124614381
 H       -12.2491216552        3.0523227297       -3.6975300835
 H       -10.8122476403        4.0278008210       -3.7494589317
 H       -12.1142293098        4.2621135626       -2.5180838770
 H        -6.6321945806        9.3301540515        0.6888358427
 H        -8.4682151845        9.3394050192        0.4997981586
 H        -7.3415775258        8.8855639362       -0.8691738284
 H        -5.7981495869        6.7532425749       -0.4203691504
 H        -6.1293003398        5.7217209891        0.8795091678
 H        -5.3579695135        7.1488992751        1.2894958951
 H       -13.8914753343        9.6650106616        3.7280784496
 H       -12.6673586108       10.6075359142        4.6557522204
 H       -13.7730974566        9.5817560153        5.4778362916
 H       -13.0261956159        7.4559496422        6.2212323396
 H       -11.5653896614        8.4565270011        6.5333538683
 H       -11.3438064864        6.8808456708        5.8414980701
 H       -11.1584604898        8.2823219671       -0.8357062122
 H       -11.8877521832        9.7926440516       -0.8263034208
 H       -11.7327830135        9.0233626028       -2.3782065938
 H       -13.8756620533        9.0942196012       -3.3088879355
 H       -13.9080973449       10.2713914211       -2.0469844424
 H       -15.2095767128        9.1271169653       -2.2351062875
 Na       -8.9031431974        0.0278148006       -0.8531635765
