117

 C       -14.5488560825        6.6284072349       -3.0332422590
 C       -13.3494810906        7.1336100319       -2.2578901554
 O       -12.3891097184        6.3777068827       -2.1973366665
 C       -13.2927159248        8.5276588041       -1.5278726401
 C       -13.8245928848        8.2376509281       -0.0923992423
 O       -15.0113186345        7.9915839180        0.0648802915
 C       -12.8958946040        8.1875877176        1.0930040118
 C       -13.6739236636        7.6965183451        2.3572446219
 C       -12.6779831236        7.3956021781        3.4266952446
 O       -12.1938846538        6.2892289901        3.4652049953
 C       -12.0806071862        8.4969954035        4.3833246252
 C       -10.7683427330        9.0304872706        3.7370259753
 O       -10.7207753326        9.9889534316        2.9439013544
 C        -9.5311478610        8.1035226509        3.9299316285
 C        -8.4189123324        8.3517864581        2.9235047978
 C        -7.9375788579        7.0357844316        2.2187143887
 O        -8.0724619604        5.9499253915        2.7578380828
 C        -7.3494241709        7.0946596817        0.7072399242
 C        -8.5046259160        6.5317371402       -0.2363109619
 O        -9.2616831182        7.3088144052       -0.8091413284
 C        -8.7752257122        4.9792075387       -0.1337457226
 C        -9.8677292879        4.4196818172       -1.1233641793
 C        -9.9011697920        2.9111503844       -1.1698270060
 O        -9.1934961698        2.1177556286       -0.5784007421
 C       -11.1279003932        2.2280861032       -1.9933855136
 C       -10.5913475971        1.0120562234       -2.7693411847
 O       -10.7637062857       -0.1450042073       -2.2869076587
 C        -9.8497377774        1.1277682465       -4.1415535732
 C        -9.1616026619       -0.2071756764       -4.4802993217
 C        -7.8372161589       -0.3696007991       -3.7644031057
 O        -7.3082899403        0.4899405790       -3.1140579210
 C        -7.2244581571       -1.8792012853       -3.7961443988
 C        -7.0516202120       -2.2012450477       -2.3065927133
 O        -8.0282021758       -2.5527874544       -1.5959746748
 C        -5.5479220074       -2.2517313640       -1.6755281522
 C        -5.6096367664       -2.4466506390       -0.1746205421
 C        -6.5298099349       -1.4486704318        0.4611774329
 O        -6.6961918819       -0.3611809234        0.0240339958
 C        -7.2635449178       -1.7475954028        1.8876889262
 C        -8.9454787960       -1.6715918122        1.8139832588
 O        -9.5639518464       -0.9466932622        1.0485374385
 C        -9.6487300676       -2.4702927165        2.9054950181
 C        -6.8236263075       -3.0246031975        2.5724528971
 C        -6.8573563232       -0.5007819534        2.8040393140
 C        -8.0944584515       -3.0095807552       -4.2755876726
 C        -5.8669719300       -1.7382677921       -4.5477473465
 C       -12.3134340294        1.9017485852       -1.0143793188
 C       -11.7209470356        3.2123865894       -3.0760481162
 C        -7.1086291222        8.5006478583        0.2767279278
 C        -6.0705073011        6.3029270975        0.8206262154
 C       -12.9891858974        9.7413832818        4.5701958226
 C       -11.9136544342        7.8260846968        5.7619861640
 C       -11.7588040137        9.0228391039       -1.4898920055
 C       -14.2825852976        9.5150074827       -2.2222320061
 H       -14.4804481125        7.0351915748       -4.0735403879
 H       -15.5130288999        6.8969024700       -2.7927402001
 H       -14.6141961473        5.5601799287       -3.1970943476
 H       -12.5727936948        9.2438820198        1.2982497398
 H       -12.0040866969        7.6599655949        0.8819835450
 H       -14.1355232848        6.7449832037        2.0011738036
 H       -14.4568742676        8.3343588096        2.7391760587
 H        -9.9323644582        7.0327010903        3.8653252823
 H        -9.2728470663        8.0800040697        5.0300072148
 H        -7.5951780809        8.8831605879        3.4456008992
 H        -8.7858541337        9.0192327644        2.1698610696
 H        -9.0386887079        4.7878101116        0.9615620315
 H        -7.8423543701        4.4997478619       -0.2945697477
 H        -9.5622768195        4.9375638228       -2.0242497109
 H       -10.7970246471        4.8802406830       -0.9384448926
 H        -9.2290150066        2.0196885557       -4.1634991021
 H       -10.6307842241        1.2934719858       -4.9347480999
 H        -8.9387674135       -0.3619749719       -5.5285711198
 H        -9.7477364155       -0.9810692296       -4.0844204444
 H        -5.0774385705       -1.2342487630       -1.9234568600
 H        -4.9773603514       -3.1046081778       -2.1011864060
 H        -4.5498639023       -2.5224996136        0.2365719823
 H        -5.8934883976       -3.4576520343        0.0062334627
 H        -9.4591246073       -1.9643002827        3.8423019856
 H        -9.3005685617       -3.5473033235        2.9773189416
 H       -10.6618272114       -2.5034624870        2.7014944042
 H        -6.9852905548       -3.9137710176        2.0039560057
 H        -7.1847872274       -3.2343438526        3.6210438438
 H        -5.7072359001       -3.0329566657        2.5869603401
 H        -7.2376480317        0.4539003827        2.4670658259
 H        -5.7565703999       -0.3796301451        2.8253521499
 H        -7.2135843140       -0.6801669537        3.8982462449
 H        -8.5409211801       -2.7172140286       -5.2542559388
 H        -8.9015890684       -3.1071032458       -3.5558874067
 H        -7.4335299189       -3.9113881471       -4.3009928191
 H        -5.6647016792       -2.7987703768       -4.7691129857
 H        -5.1641297204       -1.2453026338       -3.9489776654
 H        -6.0837574913       -1.1646332847       -5.4849888032
 H       -13.1983771844        1.6858834053       -1.6259961539
 H       -12.5128789024        2.8050517522       -0.4066178249
 H       -12.1003413045        1.0511549824       -0.3907770370
 H       -12.3968574263        2.7811124629       -3.8424441399
 H       -10.8891437273        3.7549971802       -3.5733834242
 H       -12.2744740331        3.9857013271       -2.6167252602
 H        -6.3247520744        8.8922274988        0.9414389629
 H        -7.9886626416        9.1781937505        0.3684404574
 H        -6.8503819570        8.5348193974       -0.8036231361
 H        -5.6237647156        6.2689817557       -0.1393363669
 H        -6.1070669472        5.2186638451        1.1262390525
 H        -5.2883485828        6.6663936845        1.5073949352
 H       -13.5588056877        9.7938977827        5.5089226636
 H       -13.7966159439        9.6392471080        3.8323294755
 H       -12.4786448912       10.7026555297        4.4280700479
 H       -12.8584152484        7.4415830172        6.2016722329
 H       -11.3486834660        8.5279914936        6.3828346201
 H       -11.3398753399        6.8857236754        5.6165181728
 H       -11.1599458678        8.2239876787       -1.0417186954
 H       -11.7416375366        9.9015701885       -0.8925701674
 H       -11.3205083693        9.2692254377       -2.4627768459
 H       -14.3923033405        9.4614808450       -3.3517330396
 H       -13.9219670217       10.4599526070       -1.9929372898
 H       -15.2547092028        9.4324265433       -1.8211351348
 Na       -8.9168374204       -0.1139965772       -0.9648512378
