117

 C       -14.4409827197        6.5644529993       -2.9710485744
 C       -13.3093369000        6.9237782808       -2.0833174626
 O       -12.3491165138        6.1573739473       -1.8837681725
 C       -13.3075049889        8.3872098054       -1.5317106826
 C       -13.9896117751        8.1923938900       -0.1009639773
 O       -15.1777949265        7.9603861919       -0.0668016970
 C       -13.1117458535        8.3525078600        1.1489756808
 C       -13.6867140302        7.6369199220        2.3976072869
 C       -12.6459877766        7.3394417854        3.5710144659
 O       -12.1024890351        6.2418663505        3.5902168024
 C       -12.1762774817        8.4591962503        4.4574307563
 C       -10.8199789233        8.8641769345        3.8146082141
 O       -10.7311599956        9.8742188544        3.1798666904
 C        -9.5663395452        7.9930226883        4.0163961797
 C        -8.5338592487        8.3313314775        2.9284744223
 C        -7.9806675420        7.1009854588        2.1901161509
 O        -7.9663038993        5.9959192389        2.6447585881
 C        -7.4128879643        7.2365059306        0.7120585063
 C        -8.4726422503        6.4314524517       -0.1527880632
 O        -9.1459390921        7.0590010763       -0.9307704940
 C        -8.7260399729        4.9582196845       -0.0000456296
 C        -9.7028581407        4.4893044566       -1.0514854949
 C        -9.7926399746        2.9747448689       -1.2797966387
 O        -8.9993932514        2.2198827271       -0.7275299448
 C       -11.0217544266        2.3710839150       -2.0572607928
 C       -10.5676333639        0.9918106000       -2.7588474781
 O       -10.8410358924       -0.0733837204       -2.3161426640
 C        -9.7660166427        1.2317258958       -4.0702455065
 C        -9.0737057605        0.0554228288       -4.6716065274
 C        -7.9191379834       -0.4168138442       -3.7383317411
 O        -7.5139423941        0.4289886981       -2.9266798741
 C        -7.2625934430       -1.7903962883       -3.7919519932
 C        -6.9375471766       -2.2627876843       -2.2389605664
 O        -7.9098231026       -2.3878235196       -1.5487177101
 C        -5.4954820174       -2.2250455922       -1.6599371397
 C        -5.6631794049       -2.4757398945       -0.1018456496
 C        -6.7117279323       -1.5294877870        0.4654908640
 O        -6.8287528508       -0.4071918162       -0.0822571616
 C        -7.3299705499       -1.7236596321        1.8688076136
 C        -8.9380051632       -1.7626367823        1.7371249190
 O        -9.4658961979       -1.0266988480        0.9444903868
 C        -9.7373651279       -2.6296302915        2.7521299469
 C        -6.7905564560       -3.0837118080        2.4316241076
 C        -6.9839629509       -0.4969457872        2.7070172825
 C        -8.1194891746       -2.8724307432       -4.5544301315
 C        -5.8831957462       -1.6325340695       -4.5782144520
 C       -12.2133031777        1.9537827910       -1.0097440612
 C       -11.5609056460        3.3614885856       -3.0952210227
 C        -7.2356390701        8.6992527913        0.3023201930
 C        -6.0687938806        6.5479100637        0.5341293847
 C       -13.1117324841        9.6434951535        4.5336610487
 C       -11.8978202667        7.9104555166        5.9254191433
 C       -11.8811097943        8.9894609352       -1.4464047427
 C       -14.1505608795        9.3688924623       -2.3739336334
 H       -14.3151354186        6.7420284707       -4.0086151517
 H       -15.4432752497        7.0095384680       -2.7986179139
 H       -14.6761549611        5.5087566655       -2.9223017081
 H       -12.8369399194        9.3394118913        1.4494488327
 H       -12.1302273137        7.8959948405        0.7836832310
 H       -14.1201537887        6.7006405886        2.0582374043
 H       -14.5289326856        8.2496262469        2.7959611254
 H        -9.8587929519        6.9905928668        4.0993309842
 H        -9.2517290056        8.1472306084        5.0147756006
 H        -7.6928752067        8.8460864438        3.3795718978
 H        -9.0011096090        9.0707212691        2.2231467999
 H        -8.9721587202        4.7582206220        1.0184683086
 H        -7.7262576290        4.4224384771       -0.1310317350
 H        -9.3512223079        5.1328529605       -1.8804692836
 H       -10.7074339431        4.9872095151       -0.8421724387
 H        -9.0401781068        2.0434742930       -3.9470055788
 H       -10.4748265765        1.6348278055       -4.7733488721
 H        -8.5786087300        0.3201331242       -5.6029594908
 H        -9.7798987536       -0.8700712939       -4.7675060455
 H        -5.0568584667       -1.3102170368       -1.8847584375
 H        -5.0444182298       -3.0433647789       -2.1853688848
 H        -4.7124796531       -2.4864596593        0.3425687240
 H        -5.9604837689       -3.5414629368        0.0862151426
 H        -9.7359175631       -2.1591427071        3.7562873673
 H        -9.3850526562       -3.6156550677        2.8246198176
 H       -10.8039019467       -2.7118297712        2.3288835431
 H        -7.1937645335       -4.0442817630        2.0187481127
 H        -7.1162910061       -3.1500992079        3.4504026667
 H        -5.7327161326       -3.1838810527        2.4975588363
 H        -7.3011425681        0.4573934801        2.2369089958
 H        -5.9395331421       -0.4252471404        2.8309722084
 H        -7.4974131145       -0.5158119284        3.6332637958
 H        -8.1382088841       -2.6481545755       -5.5824559699
 H        -9.1306854547       -2.8599434224       -4.1820829404
 H        -7.6689048933       -3.8041728121       -4.3606142773
 H        -5.2529087561       -2.4486813516       -4.2946228547
 H        -5.5253773018       -0.6354723625       -4.2197853340
 H        -6.0961592350       -1.6230834599       -5.6252270301
 H       -13.1419449412        1.6963729674       -1.5451330307
 H       -12.4108067535        2.7593730767       -0.3251089844
 H       -11.8015108336        1.1055046091       -0.4182424157
 H       -12.4681177991        2.9986575449       -3.5290487390
 H       -10.8530362540        3.5560833258       -3.8520756024
 H       -11.9140987584        4.3436115445       -2.6601330851
 H        -6.9041309606        9.3553211522        1.0589034870
 H        -8.1807654881        9.0390549194       -0.0094250927
 H        -6.5964367946        8.7269006858       -0.5598809618
 H        -5.8106656903        6.1806320804       -0.5092572781
 H        -5.8776766109        5.6997025082        1.1583560889
 H        -5.2587689408        7.1590507435        0.9177382383
 H       -14.1418553208        9.4816086629        4.7315854408
 H       -13.0635689467       10.2435708670        3.6250654523
 H       -12.6765597019       10.2766920402        5.3084858718
 H       -12.7953153847        7.6314122995        6.4331931469
 H       -11.2272853552        8.6257200775        6.4275969001
 H       -11.3604658272        6.9843793063        5.8630879487
 H       -11.0852245515        8.3485605924       -1.0192984069
 H       -11.9760463247        9.9369078248       -0.8032982836
 H       -11.6281377124        9.3380275852       -2.4438735271
 H       -13.7721205283        9.5000792714       -3.3632407661
 H       -14.2809244099       10.3644156608       -1.8437881093
 H       -15.1912919875        8.9660475012       -2.5273640572
 Na       -8.7990952765       -0.0826760205       -0.8854101438
