117

 C       -15.0400946119        7.3507187813       -3.2049275451
 C       -13.5453427562        7.5694400519       -2.7461351453
 O       -12.6808662863        6.7450581647       -3.1017791619
 C       -13.2036761067        8.7752813634       -1.7652700874
 C       -13.7293663885        8.3151344961       -0.2608647549
 O       -14.9099502280        8.2078300590       -0.1403339730
 C       -12.7882361265        8.2420587883        0.9293979160
 C       -13.5739783097        7.8830685526        2.2612091001
 C       -12.5872322556        7.4779755885        3.3259411472
 O       -12.2688824255        6.3253699037        3.5478445047
 C       -11.9282623235        8.6310835588        4.1408058055
 C       -10.6193743901        9.0165656156        3.2953613641
 O       -10.6636012962        9.8275766782        2.4069521100
 C        -9.3123308734        8.2885901711        3.7046742097
 C        -8.2607544980        8.2473075986        2.5451440427
 C        -7.9791177528        6.7916648522        2.1590205628
 O        -8.3664955716        5.8878734792        2.8372128673
 C        -7.2603647238        6.4480049883        0.7724265977
 C        -8.5734681290        6.1610456565       -0.1573019253
 O        -9.2205672960        7.0777859134       -0.5993387874
 C        -8.8666766403        4.7318714417       -0.2030950668
 C       -10.0236412956        4.2918970803       -1.0961306942
 C        -9.9745981402        2.8097223206       -1.4346070157
 O        -9.1225261051        2.1607540785       -0.9414973733
 C       -11.2398880697        2.2003046096       -2.2999740302
 C       -10.8549962656        0.8758304139       -2.8720310096
 O       -10.6083824542       -0.0479550529       -2.0731268434
 C       -10.5049873363        0.7587929098       -4.3092624814
 C        -9.7035314721       -0.5122025907       -4.5172193089
 C        -8.3000027478       -0.5644234195       -3.6257490374
 O        -8.0400818819        0.3988693645       -2.9108014673
 C        -7.4987078575       -1.9110508294       -3.6222729700
 C        -7.3136261913       -2.2267689615       -2.1007298591
 O        -8.3477812283       -2.4685822497       -1.5061309961
 C        -5.9588699029       -2.3813058471       -1.3643603599
 C        -6.0263149591       -2.5788218146        0.1603115570
 C        -6.3879332756       -1.2330920147        0.8824206129
 O        -6.2777804852       -0.1360412747        0.4071993494
 C        -6.8494854415       -1.5415512990        2.3646695203
 C        -8.4571592993       -1.5722041457        2.3543183547
 O        -9.1164670112       -1.0997334803        1.4365570100
 C        -9.2319282752       -2.0720936124        3.5868518369
 C        -6.3019347418       -2.8352028865        3.0754529117
 C        -6.4828304444       -0.4009343742        3.3470098519
 C        -8.2999355780       -3.0619234545       -4.3417487760
 C        -6.1175322706       -1.6701278876       -4.3415542887
 C       -12.4696651008        2.0580072796       -1.3557810747
 C       -11.6627369329        3.2263581117       -3.4208521786
 C        -6.4211467393        7.6764117246        0.2971581891
 C        -6.2977455028        5.2449470181        1.0962613161
 C       -12.8886824359        9.9065107540        4.2604320905
 C       -11.5542986670        8.1476689606        5.5500257422
 C       -11.6731766214        8.9853874349       -1.6862630492
 C       -14.0221024801       10.0058643933       -2.1613452983
 H       -15.2257892104        7.8568612746       -4.1679889247
 H       -15.7940311681        7.7702087335       -2.5012174963
 H       -15.2356564958        6.2707899048       -3.3707537324
 H       -12.2449891562        9.2171672165        0.9392964819
 H       -12.0587367675        7.4569097802        0.7621951233
 H       -14.2739370608        7.0131501512        2.1297339339
 H       -14.1950036317        8.7452054713        2.4288728989
 H        -9.5128405815        7.3228218184        4.0929134678
 H        -8.9214030624        8.9599404526        4.4396254967
 H        -7.3007272068        8.7279566284        2.8647202704
 H        -8.6551923745        8.7766739392        1.6841342399
 H        -8.9823461757        4.2160927992        0.8221212533
 H        -8.0701396018        4.2681392917       -0.7065988370
 H        -9.9178036521        4.8073731801       -2.1028019430
 H       -10.9988162822        4.5489042448       -0.6696112881
 H       -10.0422028088        1.6181264206       -4.7126818598
 H       -11.4694606870        0.6083868058       -4.8687195100
 H        -9.3889041099       -0.7106217886       -5.4840325801
 H       -10.3179993192       -1.3401937146       -4.0960112717
 H        -5.3632040426       -1.5435708524       -1.6565707096
 H        -5.4541980053       -3.2197483067       -1.7727893590
 H        -5.0467066921       -2.9933439585        0.4782366794
 H        -6.8221988910       -3.2797547389        0.3249091877
 H        -8.9225750154       -3.0338978639        4.0110773605
 H       -10.2977396285       -2.0823826052        3.4911532243
 H        -8.9193765564       -1.3113280208        4.3672506820
 H        -6.7000613591       -3.7056840294        2.5540193169
 H        -6.5460321367       -2.9613097503        4.1245180750
 H        -5.2491813461       -2.7880016699        3.0430429468
 H        -6.9096079448        0.6079224130        3.1468251043
 H        -5.4470196745       -0.3596704341        3.3532286453
 H        -6.7775808920       -0.6900935919        4.3574130637
 H        -8.4881125272       -2.6672573805       -5.3255556156
 H        -9.1918283003       -3.3022098652       -3.7819585165
 H        -7.6587730113       -3.9358086204       -4.4282013315
 H        -5.5850505359       -2.5611661493       -4.0874862045
 H        -5.7346872846       -0.8183305231       -3.8438551964
 H        -6.2656975721       -1.5912460450       -5.4300745022
 H       -13.3926581297        1.9278225730       -1.9769729212
 H       -12.5390611416        2.9741689703       -0.8272501748
 H       -12.3064195586        1.2375585794       -0.6538824884
 H       -12.5284938048        2.8975265793       -4.0349774038
 H       -10.8709250505        3.4233238771       -4.1427654096
 H       -11.9146665439        4.1890576516       -2.9091852444
 H        -5.6660325593        7.9550140335        0.9620746980
 H        -7.0676007587        8.5017224090        0.1251704422
 H        -5.8371818353        7.4235373928       -0.6068518765
 H        -5.8680157910        4.7982936278        0.1720527826
 H        -6.8181112019        4.3595867930        1.5212949143
 H        -5.5249120655        5.5673248118        1.7943186637
 H       -12.7453942037       10.4273905493        5.1455198008
 H       -13.8772886244        9.4522179351        4.2583790841
 H       -12.8729346695       10.5049733004        3.3265328925
 H       -12.3991302400        8.0163428787        6.1986514654
 H       -10.9579164222        8.9704946197        5.9671316814
 H       -10.9338135368        7.3055142964        5.4683518522
 H       -11.2333285896        8.0273853026       -1.3394706572
 H       -11.4625762750        9.7730459316       -0.8727401079
 H       -11.2460987665        9.2741274120       -2.6252850510
 H       -14.0918058520       10.1977162571       -3.2565589164
 H       -13.6762630242       10.8784287108       -1.6156273873
 H       -15.0690671137        9.9034044880       -1.7682649049
 Na       -8.5549389620       -0.0349291070       -0.7169611559
