117

 C       -14.9857598566        7.4800671605       -3.1466726327
 C       -13.5958881753        7.5201253635       -2.7050557994
 O       -12.7373311988        6.7644253579       -3.0778973035
 C       -13.2248040171        8.7007341087       -1.7140403829
 C       -13.8365779339        8.4075165204       -0.3403520222
 O       -14.9904884128        8.1295626243       -0.1696108899
 C       -12.8203803247        8.2560086847        0.8646724361
 C       -13.5797139029        7.7901843382        2.0982958556
 C       -12.6209545324        7.5034169124        3.2624372203
 O       -12.3406031731        6.3396982928        3.5011540052
 C       -11.8794075493        8.6807537622        4.1486728338
 C       -10.5954959355        9.1021075504        3.3645503492
 O       -10.6512044449        9.7735819965        2.3658580046
 C        -9.2635611546        8.3554725846        3.7308868936
 C        -8.2660321703        8.2732563876        2.5961480983
 C        -7.9748842843        6.8015027923        2.1794615918
 O        -8.2771341714        5.8171815101        2.8486519556
 C        -7.2140165447        6.4986347804        0.8247604374
 C        -8.4548834161        6.1117515021       -0.1022102764
 O        -9.0967787112        7.0025636865       -0.6167383966
 C        -8.8857676983        4.6245088265       -0.2068705267
 C       -10.0676518776        4.3281147572       -1.2061900855
 C       -10.1180383055        2.8323567321       -1.4057304089
 O        -9.2585052468        2.0571534942       -1.0112464313
 C       -11.2507560669        2.2922105757       -2.2845060873
 C       -10.7785953578        0.8532920672       -2.8498700110
 O       -10.6041373969       -0.0607940477       -2.0674681205
 C       -10.5178151770        0.6383631570       -4.3794143155
 C        -9.7055112147       -0.6030916182       -4.5925117333
 C        -8.3774110083       -0.5923436117       -3.7032702257
 O        -8.1501037808        0.4073003099       -3.0292764173
 C        -7.4995488804       -1.8557049009       -3.6132435351
 C        -7.4086384902       -2.2728417995       -2.0187146480
 O        -8.4107615034       -2.5434681713       -1.4535939017
 C        -6.0064600036       -2.4792233671       -1.4334746614
 C        -5.9927925860       -2.5490739595        0.1255191592
 C        -6.3751211663       -1.3295955586        0.9965774315
 O        -6.3128881677       -0.1900230865        0.4575905834
 C        -6.8549450938       -1.5330922540        2.4274774326
 C        -8.4112926678       -1.4670060715        2.4335078575
 O        -9.0656863598       -1.0611399263        1.5063713729
 C        -9.1347176970       -2.0798376208        3.6783108743
 C        -6.3445701025       -2.8304866278        3.0609740482
 C        -6.4054099735       -0.2378342602        3.3033238375
 C        -8.2059773083       -3.0693989750       -4.1671272281
 C        -6.1579640458       -1.5714279031       -4.3401923555
 C       -12.4150989185        2.1423744610       -1.2619643391
 C       -11.5413909480        3.3583689182       -3.4033285552
 C        -6.3617016335        7.5815541742        0.2078510812
 C        -6.3269746501        5.3005819084        1.0600995999
 C       -12.8611477342        9.9332183216        4.2146104524
 C       -11.5528604734        8.2656855172        5.6096552928
 C       -11.6897101255        8.9746947505       -1.7154659945
 C       -13.8628892832       10.0805823265       -2.2483008146
 H       -15.1201250991        8.2129566846       -3.8908881686
 H       -15.6456219425        7.7891550490       -2.2823892833
 H       -15.2641108524        6.5314884897       -3.5101052786
 H       -12.3804057540        9.2195012854        0.9938973881
 H       -11.9917368888        7.5222514275        0.7048787498
 H       -14.0618327036        6.8095572634        1.9407054284
 H       -14.4169239871        8.5300608387        2.1672222346
 H        -9.5373653435        7.3317382045        3.9806709167
 H        -8.7713599092        8.9021151064        4.5918665410
 H        -7.3171596073        8.6999053690        2.8245381801
 H        -8.6782548883        8.7784851514        1.6842862775
 H        -9.3316981841        4.2772277501        0.7419613805
 H        -8.1032757532        3.8958310331       -0.4291330733
 H        -9.9951740682        4.7667735685       -2.2168814625
 H       -10.9771260506        4.6323481693       -0.7125737414
 H        -9.9666752434        1.4591592317       -4.8059819561
 H       -11.4344040830        0.5316201358       -4.9867596506
 H        -9.2225356263       -0.6359893305       -5.5157271218
 H       -10.2655650892       -1.5247295175       -4.4048453882
 H        -5.3859495362       -1.7215328436       -1.9241539261
 H        -5.5332511965       -3.4446496748       -1.7652082907
 H        -4.9901628724       -2.8069192977        0.3393800275
 H        -6.6875516868       -3.4179164354        0.3119144778
 H        -9.0096678367       -3.1653695330        3.7701057378
 H       -10.1903928266       -1.9233126816        3.6171028393
 H        -8.7160817116       -1.6505264787        4.6542092697
 H        -6.7923825510       -3.7022635130        2.5346753588
 H        -6.5466013869       -2.9453271302        4.1010704620
 H        -5.2832201803       -2.7639976764        2.9748227412
 H        -6.6764578431        0.7169560785        2.7832957281
 H        -5.2448493992       -0.2984754584        3.3649879962
 H        -6.8584801707       -0.1867882292        4.2613742831
 H        -8.4653587033       -2.9046726584       -5.1751656124
 H        -9.0171900271       -3.3415620797       -3.4899833472
 H        -7.5059414921       -3.8531555056       -4.1365950906
 H        -5.5770772078       -2.3754457113       -3.9724383060
 H        -5.8104970930       -0.5659042142       -3.9502953624
 H        -6.2943992777       -1.6769547117       -5.3760021535
 H       -13.2593765822        1.5901447762       -1.6907597942
 H       -12.7326826298        3.0899794879       -0.8521163631
 H       -11.8967814371        1.5676106393       -0.4565042380
 H       -12.4230718146        3.0583040216       -3.9672906182
 H       -10.7447315208        3.3859651691       -4.1201385307
 H       -11.7960582228        4.3885733028       -2.9931507397
 H        -5.7365742640        7.9706167789        0.9782592681
 H        -6.9213217631        8.3788650221       -0.1712650590
 H        -5.6726624526        7.1926732343       -0.4857046997
 H        -6.1709608974        4.7300419430        0.0458408514
 H        -6.7181029526        4.5345119327        1.7075682501
 H        -5.3489635943        5.6166797482        1.5316289064
 H       -12.5285634540       10.6957550701        4.9010476942
 H       -13.7689258611        9.4918739228        4.5783820395
 H       -13.1252246759       10.2582592446        3.2193507567
 H       -12.4122323467        8.2249026956        6.2521517493
 H       -10.8291817353        9.0086398187        5.9909313666
 H       -11.0338881689        7.3263698278        5.5605152035
 H       -11.0918621776        8.0633347914       -1.4792147772
 H       -11.4061647821        9.7723913685       -0.9717941493
 H       -11.5246348908        9.3199449739       -2.7516798112
 H       -13.6257374058       10.2394711396       -3.2257989913
 H       -13.5925922222       10.9506649744       -1.5643009880
 H       -14.9657938628       10.0719389094       -2.1588660238
 Na       -8.6640619843       -0.1044428708       -0.6621450678
