117

 C       -14.8765748965        7.2112029211       -3.0977586245
 C       -13.4945477879        7.3965547998       -2.6237791145
 O       -12.5246783403        6.8129178786       -2.9783672097
 C       -13.3115386887        8.7178297990       -1.6758991922
 C       -13.8077262135        8.2855005420       -0.2833410192
 O       -14.9950408146        8.1468507496       -0.0113202086
 C       -12.7579942114        8.0510804966        0.8593010105
 C       -13.4715796698        7.7386070708        2.1615101782
 C       -12.5007526777        7.5102129071        3.3125677200
 O       -12.2730158184        6.3321349544        3.5236712547
 C       -11.9103084530        8.6758304255        4.2615653576
 C       -10.6336823537        9.0829985167        3.4509739577
 O       -10.7499653169        9.8377903204        2.5024418536
 C        -9.3571744230        8.3213675230        3.8120312807
 C        -8.4531980603        8.2400702891        2.5675784851
 C        -8.0606306765        6.8306579945        2.2150538622
 O        -8.4764109207        5.8605788576        2.8416272623
 C        -7.3201990510        6.5759371376        0.8270143279
 C        -8.5037726213        6.2381015452       -0.0234866464
 O        -9.1850805037        7.1298956946       -0.5400078564
 C        -8.7593549037        4.7289664293       -0.2988527668
 C       -10.0897744021        4.4915328854       -1.1230109690
 C       -10.2415078142        2.9277111613       -1.3524309464
 O        -9.2567719135        2.2564245849       -0.9619685059
 C       -11.3207605943        2.2508641301       -2.2400010405
 C       -10.6893047731        0.8519314647       -2.6853300529
 O       -10.7476106283       -0.0834401377       -1.9449082400
 C       -10.2129353334        0.8001653335       -4.1628511571
 C        -9.4502523680       -0.4558091340       -4.5356395798
 C        -8.1648475898       -0.6110789428       -3.7805727595
 O        -7.7083491793        0.3110958814       -3.1593489083
 C        -7.4347749625       -1.9997790233       -3.6631253730
 C        -7.3123298864       -2.2282034664       -2.1113158177
 O        -8.3082491548       -2.3739577049       -1.4554635450
 C        -5.9201980583       -2.1202220996       -1.4648105128
 C        -6.0540581432       -2.5891835657       -0.0211620113
 C        -6.4418967984       -1.3824266980        0.8855525071
 O        -6.4181884389       -0.1955177196        0.4504189733
 C        -6.9541356247       -1.6000025495        2.3245444810
 C        -8.5432362920       -1.6351462271        2.2015925733
 O        -9.0919962638       -1.1607438329        1.2478447348
 C        -9.3390064724       -2.0687612204        3.4124894412
 C        -6.3891121115       -2.9621069357        2.8413861822
 C        -6.6199253229       -0.3228930556        3.2179720103
 C        -8.1447720272       -3.1474086794       -4.4778421467
 C        -6.0848227076       -1.7622521138       -4.3920155046
 C       -12.4662871862        1.9459219532       -1.2370153261
 C       -11.7220942915        3.2149620974       -3.3482285344
 C        -6.5950408083        7.8496933298        0.3085668510
 C        -6.2765491292        5.4544310594        0.9813478945
 C       -12.7657355205        9.9399402016        4.4185398620
 C       -11.5718582422        7.9811961613        5.6266322184
 C       -11.7431192399        9.0642476155       -1.8241291281
 C       -14.1007302852        9.9379233737       -2.1336665939
 H       -15.0339653278        7.7486084745       -4.0478067099
 H       -15.5904164027        7.7219080950       -2.3874212392
 H       -15.2278337545        6.1975751373       -3.3341831931
 H       -12.1047198526        8.8970329481        0.9752463936
 H       -12.1397222796        7.1463103130        0.6428696349
 H       -14.0217480739        6.8445137724        2.0585506059
 H       -14.1995672371        8.5636369776        2.3211129513
 H        -9.8008751894        7.3368998272        4.0647131561
 H        -8.8507482148        8.7467813346        4.6972480582
 H        -7.5711918054        8.8329274301        2.7371349707
 H        -9.0314378351        8.6842119742        1.7173947187
 H        -8.9000045759        4.1486243098        0.5317875034
 H        -8.0300971613        4.2017418020       -0.9823067774
 H       -10.0009021302        4.9898763587       -2.0702310228
 H       -10.9755149270        4.9118656573       -0.6126766745
 H        -9.5333466115        1.6735927938       -4.4023642403
 H       -11.0405910386        0.9016704061       -4.8430794063
 H        -9.0498749048       -0.4410370736       -5.6235491103
 H        -9.9986875758       -1.3692917894       -4.2825004166
 H        -5.5937405403       -1.0711668329       -1.3738906402
 H        -5.2058442390       -2.6651514400       -2.1619005245
 H        -5.0496670096       -2.8810316517        0.2678702705
 H        -6.7856441671       -3.4289373316        0.1389098007
 H        -8.8418111176       -2.8157019276        4.0026484157
 H       -10.2141498990       -2.5366727686        2.9814355801
 H        -9.6743695325       -1.2766574874        4.0567360761
 H        -6.7015580608       -3.8910680809        2.3225519781
 H        -6.6817474996       -3.0252150852        3.8863905041
 H        -5.2674071475       -2.9282070354        2.9085766206
 H        -7.1374419703        0.4956794792        2.7706390830
 H        -5.4960091258       -0.0833799116        3.2209455439
 H        -6.8292394895       -0.4047596541        4.2539997159
 H        -8.3156806280       -2.8266659908       -5.5254305275
 H        -9.1243656222       -3.1970448412       -3.9381145695
 H        -7.5865058215       -4.0966126410       -4.3889662086
 H        -5.5359445671       -2.6628480514       -4.6465767555
 H        -5.6042608530       -1.0073750015       -3.7062106572
 H        -6.4696071776       -1.2484650557       -5.2155018944
 H       -13.4302481521        1.8551097421       -1.6625572314
 H       -12.4196340074        2.7802152061       -0.5163211931
 H       -12.2056857952        0.9942301244       -0.7690585287
 H       -12.1505988256        2.7687015214       -4.2211463975
 H       -10.8293364086        3.7425538939       -3.7085189676
 H       -12.2771452925        4.0469114266       -2.9161849210
 H        -5.7048536915        8.2315803680        0.9363305297
 H        -7.3765098027        8.6545109683        0.2062744576
 H        -6.1273842056        7.6530628011       -0.6564764954
 H        -5.7850752566        5.0454234151        0.0901792508
 H        -6.7620375981        4.6147706908        1.3363132822
 H        -5.4449105614        5.7353670205        1.6119001458
 H       -12.0534321702       10.4683867892        5.1301335901
 H       -13.7824407034        9.8897274127        4.8064669848
 H       -12.7151045373       10.4523097805        3.4832494929
 H       -12.5622265544        7.9079008015        6.0752253797
 H       -11.0502538868        8.5787483448        6.3561509687
 H       -11.1008835189        6.9915537353        5.4333557583
 H       -11.0227558575        8.3063067838       -1.6254488504
 H       -11.6907364753        9.9168319709       -1.2302525433
 H       -11.5509757371        9.4379732738       -2.8392120129
 H       -13.9836204858       10.1530740407       -3.1432540876
 H       -13.7316351955       10.8217921021       -1.5444373493
 H       -15.1528618127        9.8612285876       -1.9171171128
 Na       -8.4671984525       -0.0190816944       -0.6439110919
