117

 C       -15.0240249361        7.7238879007       -3.3843478623
 C       -13.6313000991        7.5652775233       -2.6916821810
 O       -12.9700436740        6.5841834202       -2.8421327017
 C       -13.1383176672        8.7367831127       -1.7842047837
 C       -13.8213405093        8.4023526682       -0.3855272331
 O       -15.0412465302        8.3384663317       -0.2073842492
 C       -12.8359224225        8.3875227247        0.7908990710
 C       -13.5564784445        7.8270091046        2.0232257880
 C       -12.5988738949        7.5677617171        3.1920609721
 O       -12.3110661020        6.4130676135        3.4926497833
 C       -11.9608866436        8.8486142546        3.8933922511
 C       -10.6046380083        8.9739749203        3.1394703975
 O       -10.4761695829        9.7010337387        2.1674888188
 C        -9.3663423405        8.2316200395        3.6944719146
 C        -8.2714286208        8.1595009144        2.5856697445
 C        -7.8086875850        6.7462499188        2.2744042982
 O        -7.9366368596        5.8372235651        3.0801605086
 C        -7.0686140096        6.4642840185        0.8762331468
 C        -8.2233646010        6.0663999520       -0.1456378469
 O        -8.6833239405        6.8068045886       -1.0232951744
 C        -8.9354038183        4.6674636177       -0.0261568328
 C        -9.7528976688        4.2692218448       -1.3388587960
 C       -10.1207592575        2.7687967904       -1.3623835343
 O        -9.5161671868        1.9347241008       -0.6858392130
 C       -11.3243746985        2.2807540204       -2.3453941137
 C       -10.9652458989        0.7190340970       -2.8420112338
 O       -10.8641656498       -0.1606609282       -2.0139232192
 C       -10.5359510520        0.4347504304       -4.3123270323
 C        -9.8461919439       -0.9376117388       -4.3537901876
 C        -8.4929484478       -0.7019610333       -3.6426712662
 O        -8.2463900413        0.3515233463       -3.0680710944
 C        -7.5502952991       -1.8978661357       -3.5163693293
 C        -7.4273435900       -2.2607030893       -1.9802878297
 O        -8.3823348474       -2.2431128320       -1.2820800856
 C        -5.9996489345       -2.6220523348       -1.4089957746
 C        -6.0118193969       -2.7178858667        0.1334393260
 C        -6.5864983560       -1.4402101582        0.8828740521
 O        -6.9440784280       -0.4534178201        0.1958932370
 C        -6.7928920915       -1.3983531059        2.4315249398
 C        -8.3413825857       -1.3104528615        2.6441964798
 O        -9.0945523034       -0.6955215417        1.9344094617
 C        -8.8928168541       -1.9164789270        3.9509470037
 C        -6.0994773994       -2.7003074827        3.0246607946
 C        -6.1831012313       -0.0847301689        2.8984450980
 C        -8.1182012436       -3.2445859636       -4.1214901317
 C        -6.1371068727       -1.6168129856       -4.2088157975
 C       -12.5431726857        2.1518843518       -1.3631459825
 C       -11.3961336144        3.2989150628       -3.4740194527
 C        -6.3682779326        7.7483075115        0.4097113926
 C        -6.0039584493        5.3727003421        1.1824079965
 C       -12.7644334733       10.1084533776        3.8319217395
 C       -11.6737625896        8.5449491798        5.4087376007
 C       -11.5665862614        8.7305849016       -1.8568488436
 C       -13.6104944927       10.1137166469       -2.2100464893
 H       -15.1548016649        8.7920858087       -3.5552753275
 H       -15.7965581058        7.3918310372       -2.6247302809
 H       -15.0490900680        7.1260077504       -4.3008879244
 H       -12.5141198545        9.4190912964        0.8892544774
 H       -11.9234993862        7.7502570286        0.7358888201
 H       -14.0451003570        6.8911753217        1.7601928964
 H       -14.4142590168        8.4918683695        2.2951938804
 H        -9.6214665214        7.2715765577        4.0074302114
 H        -8.9518940159        8.8485208043        4.4822603877
 H        -7.3693280371        8.6952546759        2.7960280748
 H        -8.5946999568        8.5717338807        1.5892104184
 H        -9.5214801134        4.6651649161        0.8984464110
 H        -8.2598711099        3.8110671890        0.1875285301
 H        -8.9761673652        4.4258778697       -2.1470330342
 H       -10.5963414093        4.9527550946       -1.5133204478
 H        -9.8051354758        1.1678978282       -4.6639837912
 H       -11.3170257065        0.4129044684       -5.0691900645
 H        -9.7131616653       -1.3417049842       -5.3399482070
 H       -10.3483769123       -1.6772821760       -3.7557369306
 H        -5.2871946009       -1.9054206793       -1.6895582533
 H        -5.6028525496       -3.5099649391       -1.8562147056
 H        -5.0142638966       -2.7461512381        0.4660270868
 H        -6.6519936497       -3.5615577560        0.5166846343
 H        -9.4528553287       -2.8336781392        3.7275844773
 H        -9.6759735147       -1.2586706072        4.3976124849
 H        -8.1121947217       -2.1986806847        4.6231077598
 H        -6.5520334756       -3.6755775813        2.8045392227
 H        -6.0892888385       -2.5115802856        4.0766932679
 H        -5.0681758514       -2.6435586186        2.7066329346
 H        -6.7512576184        0.6502112850        2.4150245201
 H        -5.1393183449        0.0623612570        2.5231983084
 H        -6.3557177651        0.0648467097        3.9385153385
 H        -8.1888427890       -3.0159974523       -5.1873961661
 H        -9.1227303032       -3.4527937077       -3.6706394236
 H        -7.5218324459       -4.1444162487       -4.0058970343
 H        -5.5951738005       -2.5154014913       -4.0080490164
 H        -5.7840098784       -0.6965868589       -3.6773532453
 H        -6.2582102573       -1.4984438487       -5.2449275355
 H       -13.4545041316        2.2568866059       -1.8935038176
 H       -12.4967934950        2.9466200666       -0.6157012001
 H       -12.3924261514        1.2370109004       -0.7901892109
 H       -12.3206514239        3.2075069547       -4.0310894761
 H       -10.4717997938        3.2271052100       -4.0519801601
 H       -11.5718445910        4.2850905423       -3.0251724907
 H        -5.5478846637        8.0635642785        1.0933046263
 H        -7.0984367851        8.5595755549        0.3490432814
 H        -6.0190766780        7.6279625360       -0.5793981790
 H        -5.5075341749        5.1773295744        0.2123965027
 H        -6.4520958622        4.4860216920        1.5751761621
 H        -5.2966178739        5.6892488908        1.9657514233
 H       -12.3159180985       10.9323586859        4.4370269277
 H       -13.7153546130        9.8306442618        4.2705077662
 H       -12.8930435700       10.4091143576        2.8121926160
 H       -12.5409838573        8.3457346259        5.9976349516
 H       -11.1591046610        9.4458106544        5.6697422310
 H       -10.9894025977        7.7265098456        5.5663505489
 H       -11.0531511253        7.7949192677       -1.6311760398
 H       -11.1749813011        9.4440039834       -1.1639512197
 H       -11.3828011560        9.1390298364       -2.8920039446
 H       -13.4586130723       10.3528068554       -3.2470705922
 H       -13.0307402101       10.8870005054       -1.5759680183
 H       -14.6780263038       10.2186836306       -1.9314031663
 Na       -9.2624573302       -0.1367097618       -0.4983397900
