117

 C       -14.5844288001        3.5771182503        0.1388861084
 C       -13.4409717266        2.5895016581       -0.1024169170
 O       -12.4308306703        2.9404779641       -0.7029597666
 C       -13.5735913047        1.0964100021        0.5345468237
 C       -12.3169382553        0.3542858347        0.0772550057
 O       -11.8872154188        0.4169507162       -1.0679863429
 C       -11.6131972273       -0.5157332335        1.1675707433
 C       -10.5556207314        0.4303824524        1.8034061298
 C        -9.3693538982       -0.5242923829        2.5468026358
 O        -9.5336934388       -0.9463140058        3.6737884902
 C        -8.1325399080       -1.0818017007        1.6891715653
 C        -7.6832964383       -0.1010461154        0.4805681188
 O        -7.2254429379        1.0595987745        0.7465780304
 C        -7.9592271870       -0.5056968410       -1.2094008059
 C        -7.6829623259        0.7803477260       -2.1703651148
 C        -8.3664789877        0.4066184612       -3.5736870164
 O        -9.5643267051        0.3026547422       -3.6834538987
 C        -7.3324938536        0.3310041951       -4.9053833471
 C        -7.0777464013        1.9275023414       -5.1585115724
 O        -6.7403532744        2.6514271098       -4.2767818474
 C        -7.3962153306        2.7446143948       -6.5714302973
 C        -8.4837384382        3.8654702650       -6.4866131667
 C        -9.0496187412        3.9590632506       -5.0040703084
 O        -9.3236655127        2.9633724765       -4.4160197382
 C        -9.0590586018        5.3206232262       -4.0173108206
 C        -9.2625311882        4.9267079688       -2.5191440396
 O       -10.0451047606        4.0115231315       -2.3144544770
 C        -8.2710640788        5.5587304190       -1.3829404538
 C        -8.8462330412        5.1930102355       -0.0738371988
 C        -8.4151946650        6.1786595989        0.9615006007
 O        -8.8474798737        7.3034280823        0.7093978958
 C        -7.5094203153        5.9590179084        2.1919244830
 C        -8.5956825847        5.7418940507        3.2289568509
 O        -8.9145041522        4.5969215407        3.4915489886
 C        -9.5174415174        6.8663057548        3.8062368751
 C       -10.2640465066        7.7446733260        2.8027644351
 C       -11.1659064363        8.7398087813        3.6777716056
 O       -10.7118103735        9.2784488179        4.6667430679
 C       -12.7742461279        9.0890368936        3.2582731964
 C       -13.7421409695        7.8832952240        4.1147624577
 O       -14.5206737411        7.2499457627        3.4431229221
 C       -13.4101213731        7.8071482530        5.6086100683
 C       -12.9992574542       10.4938073156        4.0339041292
 C       -13.1323938024        9.2126312000        1.7732003454
 C        -6.6760227269        4.6369770461        2.0340009304
 C        -6.5959775958        7.1573919520        2.2499831070
 C        -7.8924749396        6.1925987672       -4.4458541176
 C       -10.4130270694        5.9193122937       -4.4616755998
 C        -5.8938525668       -0.2416028365       -4.7124785364
 C        -8.0348998161       -0.4242262450       -5.9876799717
 C        -6.9098823410       -0.9067586657        2.8017699574
 C        -8.2565572138       -2.6141303881        1.2906602339
 C       -14.1085738216        1.1155208039        1.9417170650
 C       -14.7407366777        0.3658355836       -0.3673914956
 H       -15.6168625529        3.1671555455        0.3376662224
 H       -14.6104416576        4.4175315948       -0.5684970310
 H       -14.3396586447        4.0511157416        1.0954959277
 H       -11.0888831360       -1.3881925660        0.7211043792
 H       -12.4180197974       -0.5558960741        1.9674771358
 H       -11.0304466451        0.9117926143        2.5344983431
 H       -10.1436709178        1.1973954594        1.1739774491
 H        -9.0348637087       -0.8545461851       -1.2686090164
 H        -7.2566252339       -1.3754299040       -1.4293437186
 H        -6.6451066593        0.9102743121       -2.1203643577
 H        -7.9561992531        1.6840178216       -1.6692267996
 H        -7.6683609163        1.9584542137       -7.3529142347
 H        -6.4103324525        3.0731614612       -6.9101165890
 H        -9.4090536010        3.6758241291       -7.0615224983
 H        -8.1241347170        4.8974993115       -6.8245895811
 H        -8.2480112158        6.6280988911       -1.6605135753
 H        -7.3697876171        5.0704978309       -1.5250343037
 H        -8.5528994925        4.2021094470        0.1727468957
 H        -9.9667022091        5.1868325100       -0.1565219772
 H        -8.9055811178        7.5854071303        4.4177987088
 H       -10.1715684449        6.3065179984        4.5469281911
 H       -10.8993493995        7.0807464528        2.1421475584
 H        -9.5290034977        8.2297023353        2.2000377641
 H       -13.5021627316        6.6968547017        5.9052146629
 H       -13.9868155941        8.3063933929        6.3097144743
 H       -12.4008663163        8.2433903413        5.9528078722
 H       -13.9123443803       10.9323317073        3.7561930848
 H       -12.1115632329       11.1246344351        3.8178460391
 H       -13.0531922214       10.1824893390        5.0305980142
 H       -13.8823806785        8.4579591828        1.4910321437
 H       -12.3319976307        9.1248060976        0.9828256932
 H       -13.5690830540       10.2424921485        1.4756936558
 H        -5.9790513216        4.3851003220        2.7931066984
 H        -6.0492316424        4.5736141514        1.0983253432
 H        -7.3924951358        3.7864320484        1.9959378677
 H        -6.0475788030        7.2182034347        3.2005113034
 H        -7.1686096036        8.0840461307        2.2553248375
 H        -5.9954746827        7.5395825295        1.3981964384
 H        -7.7558434412        5.9644209453       -5.5179496979
 H        -6.9428840734        5.9666498951       -3.8988798767
 H        -8.1222079909        7.2128693095       -4.2595276481
 H       -10.4879505953        6.9881185153       -4.1919098336
 H       -11.2171132991        5.3710090093       -4.0419209633
 H       -10.5804788487        5.9570826415       -5.5401459713
 H        -5.4740993133        0.3527554444       -3.8512205928
 H        -5.2995862711       -0.0162414210       -5.6575193400
 H        -5.9091095262       -1.3287487689       -4.3207024399
 H        -8.6039028797       -1.3480209479       -5.8148494856
 H        -7.2914381578       -0.6772886058       -6.7784768627
 H        -8.7781797394        0.2433864611       -6.4545975174
 H        -6.2093474130       -1.6668769751        2.5231733832
 H        -7.0664622784       -1.1307821089        3.8432142746
 H        -6.5874831194        0.1039678356        2.8447252334
 H        -8.1835672869       -3.2732599211        2.1265105728
 H        -7.4827364289       -2.9026393559        0.5207794992
 H        -9.1117527290       -2.8543402355        0.7911841587
 H       -14.9323854420        1.7401554207        1.8543762999
 H       -13.4263327565        1.4085322864        2.7843440525
 H       -14.4087084629        0.0998493019        2.1972873558
 H       -15.2709669529       -0.3294869650        0.2964039242
 H       -14.3907454352        0.0299862487       -1.3285283437
 H       -15.3904848362        1.1839802356       -0.5375817358
 Na      -10.8369509902        1.9256925565       -2.4479054281
