117

 C       -14.9111242025        7.3104111820       -3.5406915406
 C       -13.5747830516        7.2148853005       -2.7974880101
 O       -13.0788495030        6.1152938841       -2.5879473484
 C       -12.9409643062        8.5074220902       -2.1900311494
 C       -13.6410804621        8.5740552241       -0.7130782498
 O       -14.7694978386        9.0434664443       -0.5852197848
 C       -12.8487154140        8.0897466941        0.5657034839
 C       -13.6074368343        8.0817557426        1.8951390589
 C       -12.7355487504        7.8493751713        3.1510851103
 O       -12.4787301955        6.7472438378        3.6105495578
 C       -11.9733900634        9.0788407259        3.6601128279
 C       -10.5388002139        9.1100808046        2.9296553654
 O       -10.1854750356       10.0293286617        2.2187676653
 C        -9.6874032137        7.8216121063        3.0498195518
 C        -8.4370444314        7.9304013213        2.2183988478
 C        -7.7219141812        6.5996038565        1.9693781052
 O        -7.9224852068        5.5924086104        2.6279637444
 C        -6.7314194924        6.3900170674        0.7718741322
 C        -7.5479772936        5.8513160899       -0.4237333214
 O        -7.9765547120        6.6302370483       -1.2619390849
 C        -8.0002379711        4.4074980772       -0.3725489707
 C        -9.4764626787        4.2267987871       -0.9609326336
 C       -10.0184965303        2.8209068573       -0.9402775347
 O        -9.4492633025        1.9145231325       -0.3869958168
 C       -11.2675304147        2.4873445527       -1.9117643982
 C       -11.2503527727        0.8891294410       -2.3268596611
 O       -11.3787141883        0.0046425377       -1.4758727520
 C       -10.9163511206        0.6082302376       -3.8029705495
 C       -10.1881390565       -0.7455424857       -3.9684151016
 C        -8.8426295990       -0.8051757939       -3.2224880137
 O        -8.4838064757        0.2348510911       -2.7030848382
 C        -7.9255579193       -2.1586931278       -3.2115812265
 C        -7.8349388321       -2.5941420333       -1.7602507165
 O        -8.8260621575       -2.6780496248       -1.0571874079
 C        -6.4298702272       -2.9624312721       -1.2230857949
 C        -6.4844397156       -2.8583357835        0.2908565402
 C        -6.6214678927       -1.3567199182        0.8160017725
 O        -6.5613386206       -0.5240484563       -0.0589474563
 C        -6.7602772977       -1.0715795905        2.3227553390
 C        -8.3147565460       -1.0568071269        2.6318210959
 O        -9.1482897384       -1.2769114553        1.7696195977
 C        -8.7524812609       -0.9149661611        4.0327276085
 C        -6.0055276545       -2.0191440037        3.2942623427
 C        -6.2944737323        0.4564876918        2.5412258728
 C        -8.4654381448       -3.2608908657       -4.1160902140
 C        -6.4921160817       -1.8340434668       -3.8196433848
 C       -12.5148537690        2.8280478943       -1.0058606701
 C       -11.4376301986        3.3085372921       -3.2402980292
 C        -5.9793756380        7.6506599954        0.3347238484
 C        -5.7358140134        5.2631060961        1.2499837488
 C       -12.6793732798       10.4252277476        3.3819884788
 C       -11.7680148938        8.9677513668        5.2292103184
 C       -11.4007118379        8.2481185974       -2.0225889860
 C       -13.1860766765        9.8201974401       -2.9159747702
 H       -14.8439344933        8.2328620817       -4.0719070955
 H       -15.6964992732        7.2126091887       -2.7124208764
 H       -14.9757558133        6.4078861734       -4.1008756334
 H       -11.8971264479        8.6339111552        0.7489976336
 H       -12.4914032098        7.1217878733        0.2822099786
 H       -14.3013686962        7.1756405380        1.8091647291
 H       -14.2263307674        8.9833082931        1.8419174530
 H       -10.2200763548        6.8855227530        2.8914087787
 H        -9.5454997553        7.7940574512        4.1076915603
 H        -7.7212811820        8.6337667644        2.7528739212
 H        -8.6370181950        8.3171467810        1.2438265139
 H        -7.9992322560        3.8933697650        0.6404382441
 H        -7.3836939196        3.7987014857       -1.0110494256
 H        -9.5111866874        4.5536252041       -2.0014471935
 H       -10.1879557871        4.9833821681       -0.5326648126
 H       -10.3590474782        1.3743842948       -4.2572929767
 H       -11.8311238460        0.4474056603       -4.4199304249
 H       -10.0649492574       -0.8163782999       -5.0072533837
 H       -10.9232898626       -1.6147709245       -3.7543369676
 H        -5.6379897311       -2.3421911872       -1.6042065948
 H        -6.2511125483       -4.0012636976       -1.4299771831
 H        -5.6803545095       -3.3321325183        0.8676581045
 H        -7.3683751194       -3.2876402192        0.6541174524
 H        -8.5716761339       -1.8068996890        4.5994844170
 H        -9.8239164855       -0.7286857637        3.9571222290
 H        -8.3895973137       -0.0098377247        4.5479873937
 H        -6.6015113016       -2.9730255029        3.2646419259
 H        -6.1059502079       -1.6487906152        4.3193263180
 H        -4.9989528340       -2.0832160363        2.9835386686
 H        -6.8513250920        1.1551681787        1.9569000436
 H        -5.1710343377        0.5458084955        2.3477060875
 H        -6.3840163267        0.6682850042        3.5768293478
 H        -8.4643548805       -2.9784038269       -5.1851173909
 H        -9.5014547285       -3.6507153609       -3.8276689893
 H        -7.8524155780       -4.1801480790       -4.0939490773
 H        -5.8769881324       -2.6603380551       -4.0483638772
 H        -6.0186504458       -1.1181430020       -3.0808312770
 H        -6.6997330632       -1.2372583204       -4.6918875744
 H       -13.3851296394        3.1583886205       -1.6004550333
 H       -12.2590984286        3.6261624152       -0.3552842092
 H       -12.9071677790        1.9797813947       -0.4298700882
 H       -12.3798338424        2.9561809414       -3.6870566490
 H       -10.6454568905        3.2575272125       -3.9510000839
 H       -11.6397249399        4.4002470562       -2.9375520690
 H        -5.6791248861        8.1672179349        1.2864281064
 H        -6.6766300843        8.3509089411       -0.1647534810
 H        -5.0057997569        7.4762017230       -0.1545867622
 H        -5.1027372492        5.0178132018        0.3448682113
 H        -6.3011658759        4.4400691168        1.4897851506
 H        -5.2020098437        5.5966401457        2.1208408935
 H       -12.0515442347       11.2067534062        3.7863976066
 H       -13.6417807646       10.5322273822        3.8938052422
 H       -12.8889548536       10.7178478512        2.3165022430
 H       -12.5067707153        9.5540899221        5.7995688800
 H       -10.7877726820        9.4629990423        5.5279130928
 H       -11.8085390860        7.9471516753        5.5788607561
 H       -11.2268797674        7.3256488151       -1.4867783974
 H       -10.9503649235        9.0425295070       -1.3992926028
 H       -10.8506990869        8.2244939698       -2.9348868088
 H       -12.7698538061        9.8753259600       -3.8690401716
 H       -12.9278283554       10.6888442903       -2.2076097719
 H       -14.3027938660        9.8950521363       -2.9828339872
 Na       -9.3355742481       -0.4775944731       -0.2939953917
