117

 C       -14.4468439331        3.6414834629        0.0353076786
 C       -13.3844475584        2.6342675174       -0.0951277360
 O       -12.3822747804        2.8011098614       -0.7805672331
 C       -13.6825559869        1.2348784074        0.4995652911
 C       -12.4113074553        0.3993229558        0.1792453295
 O       -11.9664814956        0.2149832243       -0.9371888072
 C       -11.5046960340       -0.4085095975        1.2767210526
 C       -10.4397182341        0.3769659339        1.9246697138
 C        -9.3848408602       -0.5797832961        2.5077145911
 O        -9.5837974037       -0.9348370717        3.6580108188
 C        -8.1037840572       -1.0717642660        1.6635646669
 C        -7.8374998050       -0.1149662896        0.3815187100
 O        -7.3215534221        0.9515634463        0.5925159388
 C        -8.1137173745       -0.4646380147       -1.0554844151
 C        -7.7604451662        0.5966835849       -2.2134152116
 C        -8.3059236155        0.3826334402       -3.5939749743
 O        -9.5034849963        0.3254975329       -3.7852839766
 C        -7.4437845728        0.4193448580       -4.9702755447
 C        -7.2135975019        1.9146394423       -5.1872908520
 O        -6.8503928432        2.5211183896       -4.1315285360
 C        -7.3776003042        2.6923806115       -6.4289747375
 C        -8.4660838006        3.6545892658       -6.2138817488
 C        -8.8134944187        3.7692073426       -4.7621201329
 O        -9.3396293306        2.7689772886       -4.2662372246
 C        -8.9099727106        5.1840717190       -4.1155015247
 C        -8.9671501598        4.8958104885       -2.5851004568
 O       -10.0427557082        4.2927232494       -2.2241340031
 C        -8.3782818463        5.4903879710       -1.3797275111
 C        -8.9369817965        5.0452390102       -0.0135873476
 C        -8.4360009403        6.2874414824        0.8922366629
 O        -8.7482600620        7.4161823545        0.6099769241
 C        -7.5647571052        6.0081738155        2.1390029629
 C        -8.7040556483        5.6845307543        3.2057112590
 O        -8.9683583544        4.5868088954        3.5802689006
 C        -9.4618840402        7.0141885019        3.7329478578
 C       -10.4308336425        7.8180112351        2.7289402489
 C       -11.2357839497        8.7997106481        3.5740599806
 O       -10.5397723663        9.3099134189        4.4990811851
 C       -12.6994174919        9.1909117893        3.3122034174
 C       -13.6248826625        8.0777642084        4.0549206697
 O       -14.5098039085        7.4345781001        3.4354710460
 C       -13.5522863435        7.8652421005        5.5128430084
 C       -13.0166133516       10.5570305341        3.9903354925
 C       -12.9388631527        9.2028852166        1.8078560740
 C        -6.6314031538        4.7214122318        1.9961785015
 C        -6.5432075073        7.1328448037        2.2500487703
 C        -7.7591204260        6.2815738252       -4.4884434179
 C       -10.3934078017        5.6544571193       -4.5198967671
 C        -6.1293820422       -0.3535031536       -4.7024666212
 C        -8.1374771705       -0.4160691502       -6.0992300684
 C        -7.0414103645       -0.9162275807        2.7096385931
 C        -8.2566356112       -2.5019245519        1.4579698486
 C       -14.1537473894        1.2793777891        1.9329498215
 C       -14.6611374528        0.4833334097       -0.4996737495
 H       -15.4289658326        3.1836509718        0.2214467906
 H       -14.4864726641        4.3836647401       -0.8228918497
 H       -14.2571625953        4.2849204316        0.9329013319
 H       -10.8519281633       -1.0935463591        0.7394138841
 H       -12.1564097519       -0.7845004578        2.0457480457
 H       -10.6982345685        1.1978796293        2.6353795947
 H        -9.8619348730        0.8577539404        1.1519914813
 H        -9.1868045632       -0.8014373593       -1.1241111308
 H        -7.4772824426       -1.4153689516       -1.1090024779
 H        -6.6456067388        0.8663160663       -2.0519491394
 H        -8.1580702181        1.5983289245       -1.7823129300
 H        -7.3476500992        1.9059710018       -7.2196961187
 H        -6.4321143634        3.2180804096       -6.5885029201
 H        -9.4896472979        3.2941916348       -6.5369066885
 H        -8.4066971442        4.7473580938       -6.6701498110
 H        -8.7393178994        6.4370496927       -1.5888509187
 H        -7.2356630449        5.4114338131       -1.3972879313
 H        -8.5085353729        4.0625921137        0.3076686039
 H       -10.0273621743        4.9622108064       -0.0643249164
 H        -8.8233655009        7.7648287636        4.1808922357
 H       -10.0612886323        6.5982714192        4.6131244879
 H       -11.0576832156        7.0998706518        2.1281610389
 H        -9.8311451635        8.3888487156        2.0548008091
 H       -13.7180336365        6.7773358494        5.7171511960
 H       -14.3207564785        8.3542435768        6.0922449023
 H       -12.6334134716        8.2700431384        6.0103252247
 H       -13.7294893599       10.9018786917        3.3488708266
 H       -12.1919103632       11.1859752225        4.0393952916
 H       -13.5723085126       10.2974862796        4.8925401489
 H       -13.7038052146        8.6199702335        1.4124477621
 H       -12.0167426746        8.9456243241        1.2401860240
 H       -13.0986499900       10.1170710652        1.5081067573
 H        -5.7639641150        4.6654215161        2.7568381005
 H        -6.0324176002        4.5756964771        0.9765248749
 H        -7.1979836458        3.8181728133        2.1057022375
 H        -5.8308775039        7.0450356175        3.0656889427
 H        -6.9990976163        8.0680080029        2.3581717111
 H        -6.1062816818        7.4360506420        1.3618971943
 H        -7.4484358645        6.2215467288       -5.6114246329
 H        -6.8753596311        6.0692113766       -3.9039702511
 H        -8.1395390862        7.2457107957       -4.1506501620
 H       -10.5102542173        6.6170814954       -4.0033674967
 H       -11.1923354191        4.9731785530       -4.2782373337
 H       -10.5149913415        5.9750857262       -5.5627873502
 H        -5.4396159311       -0.1528395460       -3.8853004941
 H        -5.6664193448       -0.2058876646       -5.6692080216
 H        -6.4641135212       -1.3860147855       -4.6017783587
 H        -8.5630131345       -1.3587449741       -5.9079493283
 H        -7.5055554688       -0.5494114820       -7.0088391612
 H        -9.0028538161        0.2028117915       -6.3466121036
 H        -6.1440379395       -1.5726753260        2.4266122320
 H        -7.2724401445       -1.3550154535        3.6673675625
 H        -6.9412770630        0.0719941188        3.0143362954
 H        -8.1310852998       -3.0831870599        2.3383364880
 H        -7.6403668987       -2.9150729779        0.6978868855
 H        -9.2819027839       -2.7441381053        1.1868289950
 H       -15.2461248991        1.4029460283        1.9809755130
 H       -13.6357819561        2.0287322914        2.5187090122
 H       -13.8462647525        0.3700245294        2.3934040103
 H       -14.6574599491       -0.4930757648       -0.0671961538
 H       -14.4576357852        0.6024587167       -1.5581929527
 H       -15.6653694910        0.9396442725       -0.2211923306
 Na      -10.7232657548        1.8550779900       -2.3437869212
