117

 C       -14.8839142386        6.7560417429       -2.9751565577
 C       -13.4372801243        6.9266333292       -2.4456001511
 O       -12.7926497675        5.9652314132       -2.0223932035
 C       -12.7568195911        8.3808922205       -2.3568328540
 C       -13.3667376898        8.8769730653       -1.0300858060
 O       -14.5550977230        9.2546351879       -1.1524061244
 C       -12.7295220624        8.6682442802        0.3083881511
 C       -13.6189121361        8.5305570695        1.5675820960
 C       -12.8627880271        8.0895860164        2.8466160016
 O       -12.9485856916        6.9954622812        3.3220089734
 C       -11.8229563351        9.1408670971        3.5645433579
 C       -10.5503304697        9.0985210867        2.7161511015
 O       -10.3264850882        9.9130827107        1.8345831679
 C        -9.5460712848        8.0075779710        3.0366547599
 C        -8.4930020536        7.8446778485        1.8640307251
 C        -7.6101826534        6.6007799772        1.8987981355
 O        -7.8644987530        5.7158652759        2.6640492146
 C        -6.5341134243        6.3573470541        0.8216700857
 C        -7.3770548806        5.8613579304       -0.5198202915
 O        -7.7086583916        6.7127550030       -1.2814940208
 C        -8.0719274513        4.5060541071       -0.4211967349
 C        -9.1235178077        4.1400967237       -1.4255935606
 C        -9.6931966754        2.7425177987       -1.1578407838
 O        -8.9591333607        1.9619320316       -0.5915152169
 C       -11.1558169188        2.3680610630       -1.6645036041
 C       -11.1928990274        0.8378976943       -2.0885142745
 O       -11.1329687998       -0.0701957797       -1.2866365933
 C       -11.2156357011        0.4093608557       -3.5934959091
 C       -10.4654547853       -0.9690080786       -3.7927402302
 C        -8.9869839538       -0.9135675688       -3.2551875029
 O        -8.3873789089        0.0933995789       -2.9203451544
 C        -8.2353206595       -2.2626417070       -3.2632622078
 C        -8.2074388988       -2.7016534059       -1.5950608049
 O        -9.2372178943       -2.6076398409       -0.9391978437
 C        -6.8848732087       -3.1825966310       -0.9985257859
 C        -6.7665237238       -2.9187483774        0.5517841918
 C        -6.9603391899       -1.4136871633        0.8359907405
 O        -6.9895207375       -0.6270664872       -0.0595397968
 C        -6.9073662169       -0.9397245302        2.3218571636
 C        -8.3988724443       -0.7287266331        2.9239561087
 O        -9.2970169011       -0.2664113613        2.2418577282
 C        -8.7594098221       -1.2348984913        4.3476592225
 C        -6.0607322257       -1.7132437163        3.2833764264
 C        -6.4602615800        0.5455968906        2.1248905749
 C        -8.8747524061       -3.4994353163       -3.9070778082
 C        -6.7647152410       -2.1734360604       -3.8039576879
 C       -12.0760503256        2.5463261619       -0.4420000730
 C       -11.6611707585        3.3038562885       -2.7985438094
 C        -5.7947789619        7.6394033223        0.4600854333
 C        -5.6213214014        5.1996067782        1.2739189364
 C       -12.3390427001       10.5735495373        3.4730606966
 C       -11.6255468738        8.8105576820        5.0880265011
 C       -11.2263967491        8.2161446904       -2.2612518578
 C       -13.1266656630        9.2925668013       -3.5929594412
 H       -15.0138952007        7.4986703640       -3.6975968713
 H       -15.4810276984        7.0022699008       -2.0548033057
 H       -14.9490212767        5.8571831098       -3.4963890643
 H       -12.0175544885        9.5034176495        0.5119388889
 H       -12.1212681393        7.7656320648        0.3663095812
 H       -14.4646901594        7.8454837195        1.5514582495
 H       -14.0810085603        9.4831374575        1.6627466328
 H       -10.0487953795        7.0225886000        3.2408109652
 H        -9.1026141711        8.4221370026        3.9645125785
 H        -7.8092969691        8.7178936461        1.8292766597
 H        -9.1256195385        7.8377172509        0.9637006834
 H        -8.5060324788        4.4494433546        0.5630789792
 H        -7.3192441335        3.7260528715       -0.5941683996
 H        -8.5895123956        4.1520255529       -2.3081070235
 H        -9.8394275395        5.0025156699       -1.5051525468
 H       -10.8454241249        1.1302268638       -4.3155047797
 H       -12.3004697938        0.2567735729       -3.8469745590
 H       -10.5376138230       -1.1538245593       -4.7879140420
 H       -11.1465356614       -1.7550202335       -3.3622584566
 H        -6.0467426212       -2.5904597047       -1.5018275003
 H        -6.7078690254       -4.2726110673       -1.1635930811
 H        -5.7398529839       -3.1867498849        1.0141388924
 H        -7.4542953787       -3.5122535550        1.1757383876
 H        -8.2461751728       -2.1467912692        4.6070061886
 H        -9.8562303243       -1.4451919605        4.4371676251
 H        -8.4238008327       -0.4523934619        5.0611987067
 H        -6.4631439542       -2.7471156517        3.3437731180
 H        -6.1073203224       -1.2239533699        4.2578288811
 H        -5.0523867632       -1.7843708054        2.9609281140
 H        -7.2082336264        1.1878551685        1.7225589817
 H        -5.5546534012        0.5697648685        1.4020403659
 H        -6.2533922189        0.9503646627        3.1184868924
 H        -8.7428523424       -3.4779988798       -4.9702498943
 H        -9.9739262593       -3.6181438461       -3.8281001077
 H        -8.5386976496       -4.4627441854       -3.6256242334
 H        -6.1874639116       -2.9979952488       -3.4899466882
 H        -6.2038500386       -1.2375250244       -3.4187453105
 H        -6.6800495798       -2.0961203287       -4.8766275918
 H       -13.1359478606        2.4973801153       -0.7801215501
 H       -12.0751928066        3.4723989309        0.0627723513
 H       -11.8427473011        1.8535699302        0.3802742980
 H       -12.5453194315        2.9072504956       -3.3101699401
 H       -10.9519292272        3.5473471248       -3.5488515427
 H       -12.0563030167        4.2873274075       -2.3704426247
 H        -5.5153960485        8.1639371899        1.3397325404
 H        -6.3242612002        8.2823603029       -0.1751789522
 H        -4.9218321938        7.4115552211       -0.1228997001
 H        -4.6290001444        5.2483956008        0.6796993806
 H        -6.2450136963        4.2904894821        1.1641285458
 H        -5.4703677278        5.3229143904        2.3981730147
 H       -11.7620993771       11.3095412045        3.9510861362
 H       -13.3434128072       10.6771537274        3.8745368659
 H       -12.4023840177       10.9130606333        2.4033931660
 H       -12.3660970091        9.1337135609        5.7939318849
 H       -10.6203209766        9.1554108305        5.4050464192
 H       -11.5374765783        7.7753805129        5.2113327968
 H       -10.8458444862        7.4010203989       -1.5812756515
 H       -10.7635855887        9.1400792578       -1.7908170289
 H       -10.7891865383        8.0336789386       -3.2539294665
 H       -12.5154337099        9.1075027677       -4.4022813814
 H       -12.9221339929       10.3616967920       -3.3817891604
 H       -14.1598608158        9.2015452464       -3.8903708589
 Na       -9.2387237637       -0.2619030102       -0.1832909993
