117

 C       -14.8846945389        7.0728228294       -3.3014831646
 C       -13.4735388544        7.0771064180       -2.6731711163
 O       -12.9608769506        6.0106821542       -2.3353228335
 C       -12.7552767416        8.4171864600       -2.1964198670
 C       -13.4523848666        8.6494637739       -0.7664843776
 O       -14.5834616630        9.1042134727       -0.7243156270
 C       -12.6738866726        8.4132990713        0.5389101776
 C       -13.6235916759        8.2280786133        1.7051074164
 C       -12.7864420697        7.9222817614        2.9358285217
 O       -12.7118760688        6.8310478264        3.4902636557
 C       -11.9403753539        9.1761069692        3.5138404310
 C       -10.5540149128        9.0638859448        2.6987442438
 O       -10.2986099351        9.9912176708        1.9559415670
 C        -9.6530668975        7.8628439976        2.9411733112
 C        -8.4560426826        7.8826828598        1.9629285108
 C        -7.7580775300        6.5435402065        1.9832639832
 O        -7.9585810419        5.6317256403        2.7801948011
 C        -6.6902079949        6.3136818167        0.7815062564
 C        -7.5259967902        5.8307603109       -0.4073440004
 O        -7.7841143163        6.6039448532       -1.3136659309
 C        -8.0085040315        4.4219820398       -0.3823610806
 C        -9.2416467775        4.1302052013       -1.2268203944
 C        -9.8086702589        2.7496666579       -1.0464050837
 O        -9.1220239316        2.0156163100       -0.3420289437
 C       -11.1698051184        2.3808730281       -1.7499611901
 C       -11.1233319000        0.8920383766       -2.2598320496
 O       -11.3092817223       -0.0429675473       -1.5085915101
 C       -11.0115291934        0.4682460582       -3.7069711372
 C       -10.3695465525       -0.8898004203       -3.7414046815
 C        -8.9429624688       -0.8079027679       -3.2074201470
 O        -8.4694164746        0.1797010246       -2.7081028813
 C        -8.0306905937       -2.1489180957       -3.2763684652
 C        -7.9252178026       -2.5786881536       -1.7323558614
 O        -8.9797435599       -2.4317362498       -1.0614856653
 C        -6.7657965419       -3.2288006530       -1.0077242990
 C        -6.6916973946       -2.9092211957        0.5362249973
 C        -6.7053910310       -1.3004498471        0.7352256230
 O        -6.6594517058       -0.4951913364       -0.1095139081
 C        -6.8894022378       -0.8742496963        2.2104960021
 C        -8.3762364249       -0.9598198254        2.7251142073
 O        -9.2654153633       -0.9382780829        1.9082367128
 C        -8.7083658861       -0.9782080564        4.2494063765
 C        -6.1130829002       -1.9009976788        3.2116932667
 C        -6.4219085324        0.5331633157        2.4053457683
 C        -8.6756825774       -3.3982478690       -3.8780518849
 C        -6.7244368507       -1.7625705577       -4.0081245380
 C       -12.2386106751        2.5143338259       -0.5869998399
 C       -11.5406202022        3.2893095143       -2.9972493402
 C        -6.0126528400        7.6453511757        0.5066845017
 C        -5.6745638990        5.1416914908        1.2144094625
 C       -12.5359275006       10.6187659495        3.3509005407
 C       -11.7071624166        8.7906616740        5.0224885263
 C       -11.2438535120        8.1444187532       -2.0534569154
 C       -13.2441226233        9.5637335067       -3.1044678448
 H       -14.9936760079        8.0840266215       -3.6309101025
 H       -15.5510000245        6.7769521227       -2.4199198597
 H       -14.8742036186        6.3789263013       -4.1113742048
 H       -12.0974945473        9.3518380781        0.6577292362
 H       -11.9068078599        7.6456662517        0.6827560304
 H       -14.3090411457        7.3986860116        1.5041414981
 H       -14.2643035082        9.0588649422        1.8912937041
 H       -10.3187664488        7.0033594973        2.9393766972
 H        -9.3627562156        7.9146527302        3.9545647752
 H        -7.8306918421        8.6289606405        2.4584564022
 H        -8.6464343073        8.0717173611        0.8843007835
 H        -8.4110486641        4.2462361123        0.5864411042
 H        -7.2044989037        3.7120865796       -0.6611895256
 H        -9.1182087097        4.3951215526       -2.2392092108
 H        -9.9821140950        4.9205195956       -0.8420842412
 H       -10.4086163993        1.1177784207       -4.3524608505
 H       -12.0731315318        0.4744825828       -4.0664913916
 H       -10.2983923460       -1.2162193361       -4.6984907636
 H       -11.0414422883       -1.6224928789       -3.2742988961
 H        -5.8287553156       -2.8310588617       -1.4123706653
 H        -6.8453025423       -4.2907780380       -1.1346319916
 H        -5.7588766031       -3.2549093919        1.1110238553
 H        -7.4607778009       -3.3239660153        1.1828924121
 H        -8.7494579845       -2.0056072164        4.5573360963
 H        -9.5873186197       -0.4669621932        4.5126806805
 H        -7.8661938478       -0.4617451864        4.8045905256
 H        -6.5092005494       -2.9117078687        3.1070934762
 H        -6.2948142229       -1.6564947130        4.2722449945
 H        -5.0853198330       -1.8288170202        2.9523600625
 H        -6.6498700626        1.0479312153        1.4715736423
 H        -5.2968740755        0.5442763950        2.5027016833
 H        -6.8937290949        1.0142559611        3.1633966022
 H        -8.9535585814       -3.2567634528       -4.8917013738
 H        -9.5209414238       -3.7742292173       -3.3289107551
 H        -8.0656323881       -4.2631678188       -3.9646768040
 H        -6.0009992461       -2.4941168421       -3.6740375425
 H        -6.3712787559       -0.7621063596       -3.6059119675
 H        -6.7030124654       -1.8022705344       -5.1265937506
 H       -13.0523444088        3.2509204567       -0.8597678193
 H       -11.8637368985        2.8432116951        0.3620238967
 H       -12.6938654308        1.5366653969       -0.3277247226
 H       -12.4609642245        2.9317333824       -3.4281111892
 H       -10.7664426832        3.2488650922       -3.7177422800
 H       -11.8408052315        4.3262239635       -2.7293417434
 H        -5.4570594219        7.9230133380        1.3610540436
 H        -6.6517419783        8.4514794525        0.2382605262
 H        -5.3365724567        7.5318501609       -0.3688921060
 H        -5.5846665044        4.4588921299        0.3308313698
 H        -6.1398630495        4.5939451265        1.9587251271
 H        -4.8085274815        5.5906239167        1.6396242253
 H       -12.0262801647       11.3803354273        3.8223338086
 H       -13.5182997919       10.6253017336        3.8255027992
 H       -12.7624848602       10.9372865463        2.2982479762
 H       -12.6078326893        8.6128276160        5.5942905253
 H       -11.1543547697        9.6520148264        5.4337152766
 H       -11.1016124448        7.9530694612        5.2162989575
 H       -11.1313093573        7.2718268512       -1.4144689037
 H       -10.6106652879        8.9124191911       -1.4964616571
 H       -10.8451818735        7.9638193431       -2.9990713428
 H       -13.3515732898        9.1800096617       -4.0244050836
 H       -12.5078346069       10.3662366317       -3.1506578260
 H       -14.2064183038       10.0286670738       -2.7951802432
 Na       -9.3175899572       -0.1180134156       -0.4061530751
