117

 C       -14.7706830957        6.6580030211       -2.9085274934
 C       -13.2974285760        6.8639475314       -2.3755936471
 O       -12.7090123989        5.9942831361       -1.7858299293
 C       -12.8370827163        8.3583774133       -2.3984472234
 C       -13.4693101270        8.9271629016       -1.1096748627
 O       -14.5001381381        9.5290447606       -1.0917093525
 C       -12.6891206651        8.7064368638        0.2236478951
 C       -13.6447402634        8.7755498467        1.4941354878
 C       -12.8458209170        8.2984549168        2.6742896047
 O       -12.9510201964        7.1536074256        3.1152853896
 C       -11.8138881955        9.2155611418        3.4736223279
 C       -10.5138347424        9.1352004295        2.6630247538
 O       -10.2738046529        9.8891382810        1.7561453246
 C        -9.5242385538        7.9973380654        2.9844155265
 C        -8.3418277097        7.9369505547        1.9485283085
 C        -7.6331397822        6.6284375353        1.9151026731
 O        -7.8656575900        5.7910003379        2.7935753419
 C        -6.6456070674        6.3425651964        0.7650204586
 C        -7.4280902882        5.9118240302       -0.5457086017
 O        -7.7389443053        6.6388163050       -1.4802801456
 C        -7.9430107573        4.4424096768       -0.4898749391
 C        -9.2526295519        4.2089772311       -1.3794772630
 C        -9.5944910896        2.7315325569       -1.2686774514
 O        -8.9075218830        1.8863982660       -0.7287680824
 C       -11.0681310315        2.3595867207       -1.7268192794
 C       -11.0928398222        0.8424550637       -2.1027202134
 O       -11.3153343856        0.0725338846       -1.1637680869
 C       -11.0396692485        0.3914178450       -3.5593898212
 C       -10.4633255129       -1.0312420549       -3.6269875332
 C        -9.0656495269       -1.0079325173       -3.2173999113
 O        -8.4812857331       -0.0032739231       -2.8622248939
 C        -8.2730987878       -2.3970105649       -3.1705611854
 C        -8.2427731067       -2.8282942491       -1.6370684849
 O        -9.2722006879       -2.6378844250       -1.0291888051
 C        -6.9028145303       -3.3642862646       -0.8189578471
 C        -6.9957925886       -2.9713540174        0.6828500457
 C        -7.0297972652       -1.4224526999        0.8902078656
 O        -6.9470591176       -0.6770956488       -0.1114836196
 C        -6.8960716755       -0.8759634041        2.3349510452
 C        -8.3656276640       -0.7330971120        2.9030018914
 O        -9.2580639689       -0.2432487105        2.2582726425
 C        -8.6770427581       -1.3400019433        4.3177041394
 C        -5.9547888609       -1.6951259107        3.2363337499
 C        -6.4006375260        0.5967485219        2.4489119225
 C        -9.1111286120       -3.5553877823       -3.7886905952
 C        -6.8864187308       -2.1986411500       -3.7926503553
 C       -11.9673535177        2.5274941160       -0.4780199793
 C       -11.4726267532        3.1560524348       -2.9590504035
 C        -5.8263565997        7.6345426330        0.4691336623
 C        -5.5948080097        5.2653061911        1.1730409928
 C       -12.3232864018       10.7451164281        3.5634403546
 C       -11.6678838040        8.6411589798        4.8903876324
 C       -11.2336277323        8.3055407482       -2.3284561405
 C       -13.2413828011        9.1586235163       -3.5603581182
 H       -14.7534829752        6.6407768688       -4.0332893591
 H       -15.2473506396        7.5149892393       -2.5255138958
 H       -15.0810910347        5.6187074839       -2.6957877503
 H       -11.9560976626        9.4821783429        0.3565483892
 H       -12.1718530619        7.7395659817        0.3393826961
 H       -14.5506560549        8.1642748651        1.4761189045
 H       -13.9695172373        9.8528066768        1.4804749042
 H       -10.1061633234        7.1243978619        2.9999245903
 H        -9.0615714616        8.1753966326        3.9317492502
 H        -7.6246015570        8.7230236211        2.1871152313
 H        -8.6962498389        8.1416123995        0.9103709857
 H        -8.1845337309        4.1482397703        0.5473188308
 H        -7.1737417580        3.7520721535       -0.8755370732
 H        -8.9617677728        4.3952588507       -2.4951654727
 H       -10.0211743090        4.8934362174       -1.1174685323
 H       -10.2740630614        1.0443552264       -4.0306049682
 H       -11.9381534118        0.4865267238       -4.1442761248
 H       -10.6994199905       -1.3930663001       -4.7011210934
 H       -11.0631546875       -1.6587345272       -3.0284671654
 H        -5.9772393103       -3.0381830423       -1.1980946188
 H        -6.8252046821       -4.4340538284       -0.8184931790
 H        -6.1742085471       -3.3541254226        1.2357248311
 H        -7.8908511391       -3.4654432515        1.1483608801
 H        -8.2915355156       -2.3768680012        4.3215329487
 H        -9.6937751890       -1.4526105010        4.4757299024
 H        -8.1329551890       -0.8369974604        5.1152181598
 H        -6.1930026426       -2.7323504288        3.2603941121
 H        -5.9151316599       -1.2327711217        4.2280596782
 H        -4.8873873599       -1.6579770209        2.8459959603
 H        -6.8206854199        1.3348425193        1.7565913036
 H        -5.3556637199        0.5660532762        2.2731781534
 H        -6.5437823453        0.9236335620        3.4379772590
 H        -9.5849200226       -3.5314246301       -4.7662412278
 H        -9.9475405701       -3.7785365293       -3.2008817041
 H        -8.5185930245       -4.4764001951       -3.7441512374
 H        -6.2203051039       -3.1139797052       -3.6754028418
 H        -6.3404825764       -1.4272415971       -3.3339818447
 H        -6.9201098445       -1.9414482271       -4.8754467634
 H       -12.7235019866        1.7717065646       -0.3504660261
 H       -12.6201127708        3.4383919172       -0.4849354342
 H       -11.4262640125        2.6332465005        0.4479766574
 H       -12.3519616647        2.6969260431       -3.3873596343
 H       -10.7253993198        3.1267665271       -3.7838680148
 H       -11.6889809162        4.1674611195       -2.8142811447
 H        -5.3484735592        8.0232606834        1.3663728390
 H        -6.5222093964        8.4236582312        0.1195952730
 H        -5.0079910776        7.5346116169       -0.2731388834
 H        -5.0322160580        5.0547951710        0.3024201413
 H        -6.1433699923        4.4745169454        1.5623477453
 H        -4.9152427817        5.6350029782        1.8579660764
 H       -11.5245368434       11.3976403197        3.9766572993
 H       -13.2134659642       10.9272848290        4.1593629489
 H       -12.5056870489       11.1549076393        2.6034318013
 H       -12.5249501750        8.8977090838        5.5248538112
 H       -10.8178095443        8.9764930926        5.4224828096
 H       -11.5365412560        7.5315864861        4.8622335325
 H       -10.8885526426        7.7355845027       -1.4944134826
 H       -10.7783147179        9.2862015462       -2.2629723782
 H       -10.8071777449        7.7996157557       -3.1834306149
 H       -13.0832771134        8.6697501835       -4.5395359229
 H       -12.6977238763       10.0510886287       -3.6399189758
 H       -14.3427635273        9.3575210076       -3.4229651573
 Na       -9.3984845969       -0.2684906966       -0.0577826937
