117

 C       -14.6709729392        6.4347383523       -2.9187178227
 C       -13.2885799899        6.8719666725       -2.3062790327
 O       -12.6363063391        6.0462081288       -1.6767752278
 C       -12.8253264727        8.3513827352       -2.3636880411
 C       -13.4337608156        9.0582751829       -1.0446836578
 O       -14.4299608149        9.7465660774       -1.0962956375
 C       -12.7385845345        8.7705301536        0.1773432742
 C       -13.5431962855        9.0964540942        1.4401550950
 C       -12.8296256437        8.3849589357        2.6179970917
 O       -13.0322184797        7.2157208559        2.8122565718
 C       -11.8457925731        9.2994494838        3.4980611444
 C       -10.4853278346        9.1886672024        2.6358306191
 O       -10.3088627435        9.9905038676        1.7223776714
 C        -9.4958704847        7.9598602774        2.8863194627
 C        -8.2809941290        8.0116068622        2.0038870952
 C        -7.5906867917        6.6265778210        1.9374624653
 O        -7.8104548508        5.7063687233        2.6800583675
 C        -6.6132405857        6.4322070819        0.7616668285
 C        -7.4841442897        5.9322753660       -0.4361913609
 O        -7.7142180986        6.6271317848       -1.3792502747
 C        -7.8640453617        4.4770165638       -0.4951857139
 C        -9.1587540772        4.2239706974       -1.3082807676
 C        -9.6109997518        2.7541578389       -1.3095300388
 O        -8.9173800213        1.8903565291       -0.7761900147
 C       -11.0671673126        2.3795354107       -1.7765086447
 C       -11.2561038422        0.8182567513       -2.1097689889
 O       -11.4121702097        0.0169178677       -1.2233515281
 C       -11.0329965166        0.3339144141       -3.5886233255
 C       -10.5068357700       -1.1623164677       -3.6264733503
 C        -9.0616780750       -1.2125720592       -3.1773069481
 O        -8.4412720953       -0.2184993342       -2.7619295773
 C        -8.3790930513       -2.5679087697       -3.0464958070
 C        -8.3384135319       -2.7987918179       -1.3880078552
 O        -9.3383697464       -2.4911508517       -0.7440476216
 C        -7.0310191900       -3.3164540366       -0.7665293826
 C        -7.0705544823       -2.9242601818        0.6874330342
 C        -6.8934781633       -1.4789189929        0.9208804858
 O        -6.9920223566       -0.6321360708        0.0600713431
 C        -6.7959064739       -0.9242554717        2.3788419218
 C        -8.3373166124       -0.9240705195        2.9509869307
 O        -9.2156491874       -0.5020383264        2.1761220048
 C        -8.6555086535       -1.4006199291        4.3056565224
 C        -5.8526171439       -1.8320625974        3.2499586072
 C        -6.3777225915        0.5954306554        2.3449665827
 C        -9.0260590899       -3.7262904485       -3.7610230777
 C        -7.0027965720       -2.4332833522       -3.6587488483
 C       -11.9855645788        2.8843932069       -0.6163400758
 C       -11.4614309431        3.2218531471       -2.9661241854
 C        -5.9009540844        7.6900671795        0.2378650877
 C        -5.5809326244        5.3024431290        1.1148258767
 C       -12.2592885749       10.7610347744        3.5449177530
 C       -11.6472762085        8.6969599207        4.8908413184
 C       -11.2774524836        8.4216934980       -2.4099889127
 C       -13.3947183145        8.9953908874       -3.6221192945
 H       -14.5723586916        5.7960359886       -3.7504788046
 H       -15.2846371136        7.3310418105       -3.0364628393
 H       -14.9935695943        5.7206213005       -2.1844624092
 H       -11.7821671195        9.3533587412        0.0741546692
 H       -12.4847378820        7.7161820373        0.2580660166
 H       -14.5956492611        8.7900778858        1.2445993782
 H       -13.4994460998       10.1634529316        1.5578603257
 H       -10.0961223672        6.9960511869        2.7086448189
 H        -9.0173333739        7.9806307844        3.9061671456
 H        -7.5445917555        8.7587120048        2.3619867857
 H        -8.4854855741        8.3828358488        1.0224921404
 H        -7.9298236522        3.9573757665        0.4743384287
 H        -7.0310463595        3.9324512211       -1.0143578385
 H        -9.0985893694        4.6495937976       -2.2434323560
 H        -9.9195111167        4.8015506381       -0.7136603405
 H       -10.3292975996        0.9584224032       -4.1042470861
 H       -12.0015926528        0.4558863924       -4.1142648558
 H       -10.6329302183       -1.5234999439       -4.6137133863
 H       -11.2280316687       -1.7778669553       -3.0001279696
 H        -6.1410737821       -2.8269222787       -1.2714157051
 H        -6.8469924727       -4.4221350652       -0.9243009139
 H        -6.4097933423       -3.5005477579        1.3876523295
 H        -8.0791233213       -3.0741830851        1.0139205923
 H        -9.0887274089       -2.3865270762        4.2722991110
 H        -9.5697487319       -0.7649475893        4.5975102297
 H        -7.8227883846       -1.3583982328        4.9710246026
 H        -6.3393302681       -2.7860556187        3.6206685463
 H        -5.4762178890       -1.2396057304        4.0854386975
 H        -4.9746871219       -2.1714757960        2.7679306638
 H        -6.9682576561        1.0348389212        1.5425078761
 H        -5.3342388454        0.8961449422        2.1717978135
 H        -6.6802011124        1.0988503595        3.3627885754
 H        -9.4607872489       -3.5387560051       -4.7505696265
 H        -9.9860399012       -4.1924248975       -3.3517094950
 H        -8.2820549527       -4.5211013859       -3.8536166265
 H        -6.5281671526       -3.3804118183       -3.6590552721
 H        -6.2848944129       -1.8466670479       -3.0387724853
 H        -6.9348868931       -2.0779008702       -4.6629699739
 H       -12.9166957029        2.3463758872       -0.5040662369
 H       -12.3304842824        3.8634687021       -0.8160951313
 H       -11.6027278839        2.9081587734        0.4059895362
 H       -12.4901712897        3.0047050757       -3.2845609263
 H       -10.8944404141        3.2014497416       -3.8633030852
 H       -11.3703220166        4.2966767114       -2.6559676775
 H        -5.1688831476        8.2392917028        0.8964881662
 H        -6.6661936959        8.4092359681       -0.1046102715
 H        -5.2897709315        7.3765711075       -0.6007799077
 H        -5.3862108962        4.6237079611        0.2856895581
 H        -6.0720328376        4.7613195855        2.0063250998
 H        -4.5629797138        5.7611697668        1.2751302712
 H       -11.6579908420       11.2414483134        4.3076428801
 H       -13.3033144263       10.8590158059        3.8679915102
 H       -12.1518131627       11.3690803839        2.6234563522
 H       -12.5906191141        8.6980099885        5.4346592606
 H       -10.9782275973        9.2890836271        5.5848843473
 H       -11.2152790966        7.7036111223        4.8572346467
 H       -10.7826250976        7.7340741203       -1.7346502048
 H       -10.8844024533        9.3985489220       -2.3393854656
 H       -10.9011587402        8.0646120056       -3.3902930867
 H       -13.6297886479        8.2206835723       -4.3818981664
 H       -12.7662502157        9.7665350200       -4.1683128383
 H       -14.3297701057        9.3911345435       -3.3381087260
 Na       -9.3929240470       -0.2487601588       -0.0909381087
