117

 C       -14.3127348446        5.9633739225       -2.4217049106
 C       -13.0253119719        6.7742103759       -2.3927715221
 O       -12.0377123793        6.2016349137       -2.0142226954
 C       -13.0129006617        8.2724909462       -2.6863347177
 C       -13.2858475293        9.0474983199       -1.3296800997
 O       -14.1949959509        9.8642421200       -1.2646521474
 C       -12.3772987624        8.8188639824       -0.1433288156
 C       -12.8280996515        9.7252557307        1.0700308821
 C       -12.6703717087        8.9184508725        2.4304160792
 O       -13.2217509852        7.8473602404        2.5736501791
 C       -11.6724189770        9.5245401534        3.5190353150
 C       -10.2984527549        9.4975811178        2.8110688234
 O       -10.0138177207       10.3397652021        2.0016699562
 C        -9.4304894599        8.1746785349        2.8427949083
 C        -8.2409767186        8.2282286707        1.8758101763
 C        -7.5542270051        6.8893725878        1.7594748462
 O        -7.7608680477        5.8836974418        2.4637323814
 C        -6.6490562449        6.6062629354        0.4953611410
 C        -7.4700263906        6.1238232791       -0.6847221103
 O        -7.9788407966        6.9282199121       -1.4703203522
 C        -7.9589024220        4.6614223675       -0.5587264419
 C        -9.2407216994        4.3789756214       -1.3834703244
 C        -9.7341340319        3.0205718996       -1.0823814993
 O        -9.2355000327        2.3175761288       -0.2249961288
 C       -11.0640570707        2.5512029884       -1.9606749481
 C       -11.1110416009        0.9266327643       -2.0833252859
 O       -11.1835424968        0.1773985271       -1.1586710057
 C       -10.9625281918        0.3167119737       -3.4896038708
 C       -10.5723106799       -1.1917909413       -3.4882029219
 C        -9.3000190510       -1.4892382736       -2.7947115627
 O        -8.7349471736       -0.5730186142       -2.2284263043
 C        -8.7141326437       -3.0404844487       -2.5845376825
 C        -8.4096516939       -3.0329001596       -1.1166267234
 O        -9.2286787996       -2.7387968762       -0.2871102661
 C        -7.1294310943       -3.7596465010       -0.5993994626
 C        -6.7918980029       -3.3650995179        0.8611011217
 C        -6.8140866364       -1.8217312719        0.9937292370
 O        -6.7830896745       -1.0485316288        0.0479702284
 C        -6.8803527719       -1.1969121377        2.5245050169
 C        -8.4398255151       -1.1593224214        2.9336321969
 O        -9.3745236355       -0.9712164093        2.1911932763
 C        -8.7032347969       -1.2763625230        4.4140591092
 C        -6.0947657487       -2.1671963082        3.5024030697
 C        -6.3321845150        0.2090662235        2.4210187245
 C        -9.7613068393       -4.1751562668       -2.9171915677
 C        -7.6318891592       -3.1679175031       -3.6696974379
 C       -12.3406234786        2.8301435478       -1.1088442646
 C       -11.1710866504        3.2113994221       -3.3931759885
 C        -5.8977554937        7.9008807084       -0.0225520445
 C        -5.5854609063        5.5000465956        0.7448275970
 C       -12.0728424396       11.0115637674        3.8128034235
 C       -11.7522476885        8.6457228281        4.7458012804
 C       -11.5898796608        8.6502286307       -3.2803442559
 C       -13.9954567558        8.7152145001       -3.7746774127
 H       -14.9829540768        6.2787371772       -3.2468761517
 H       -14.7750788051        6.2270272328       -1.5088905954
 H       -14.1100741356        4.8935157367       -2.1602987900
 H       -11.3706152765        9.1609129645       -0.4962403396
 H       -12.2492643658        7.8418025200        0.2256853032
 H       -13.8294030988       10.0743595466        0.7118583082
 H       -12.1323479188       10.5565790535        1.2653043983
 H       -10.0300198284        7.2883216672        2.7567566392
 H        -9.1149613466        8.1378297894        3.8675867088
 H        -7.4565117922        8.8632915110        2.3600031388
 H        -8.4355672324        8.6501925395        0.9387409936
 H        -8.0876025614        4.3158976912        0.4922684633
 H        -7.2052894057        3.9058658874       -0.8937144216
 H        -9.0134111909        4.4936186535       -2.4216255011
 H       -10.1142052094        5.0932181296       -1.2450845657
 H       -10.2419717334        0.9147507234       -4.0313596061
 H       -11.8924100949        0.3814540492       -4.0737898390
 H       -10.4525447679       -1.4123666310       -4.6494673041
 H       -11.4192845509       -1.7747038976       -3.1639058194
 H        -6.2668771048       -3.6548297979       -1.2209394657
 H        -7.4098451525       -4.8015235457       -0.6374023334
 H        -5.8257266019       -3.7835816803        1.0923478593
 H        -7.5546709374       -3.8224703877        1.4063321091
 H        -9.7161016239       -0.9778444563        4.6803749145
 H        -7.9221665501       -0.7456039751        4.9263842003
 H        -8.6254906334       -2.3114444755        4.6993025410
 H        -6.3890050036       -3.2027826379        3.6889417270
 H        -6.0586129525       -1.8243768135        4.5156060854
 H        -5.0483237860       -2.2004238427        3.2266263647
 H        -6.7449510789        0.6634089354        1.4986251283
 H        -5.3102491775        0.1121832158        2.2640762322
 H        -6.4995883493        0.9110804111        3.2034917769
 H       -10.3013707182       -3.7861820944       -3.7512017501
 H       -10.3708560334       -4.5653606031       -2.1309731147
 H        -9.2227515425       -5.0404909129       -3.2945511879
 H        -6.9913813214       -4.0978425177       -3.5492623921
 H        -6.8993699793       -2.4200972923       -3.7682040080
 H        -8.0509044164       -3.2204519109       -4.6904577780
 H       -13.0801773272        2.0651695017       -1.2485864183
 H       -12.7948288856        3.8229342725       -1.3567365531
 H       -12.1843921518        2.9217071135       -0.0175945675
 H       -12.0004464559        2.8040246394       -3.9858564062
 H       -10.2306071852        3.0932032204       -3.9284817352
 H       -11.4246004697        4.2461688370       -3.3253384017
 H        -5.3702432497        8.3937274481        0.7702754398
 H        -6.6344853955        8.5922016017       -0.3721886414
 H        -5.3238359371        7.7807190763       -0.8737135388
 H        -5.3856835542        4.9107984986       -0.1070318975
 H        -5.8617311187        4.8579358556        1.5306810297
 H        -4.7485856929        5.9755477378        1.0968516858
 H       -11.4968789499       11.1958851516        4.7648660631
 H       -13.0996135930       11.1969887793        4.0691882814
 H       -11.7175776675       11.7031039358        3.1131690638
 H       -12.7597321206        8.7486275466        5.0384057491
 H       -11.1251821303        8.8750175431        5.5648195371
 H       -11.7994332311        7.5924803311        4.4435897326
 H       -10.6802457611        8.2852968389       -2.8205387723
 H       -11.4592865832        9.7041238395       -3.2095347480
 H       -11.6262845926        8.4340512730       -4.3953930574
 H       -14.1498211852        7.9034582716       -4.5877803436
 H       -13.5417528548        9.5609083510       -4.2596464056
 H       -15.0017953292        8.9666491042       -3.4069287469
 Na       -9.0843180304       -0.0679591844        0.0795405239
