117

 C       -14.5599164362        6.1257463323       -2.7319466254
 C       -13.2362873692        6.8699610866       -2.2941642408
 O       -12.4268195284        6.2077003586       -1.6234149993
 C       -12.8566224457        8.3334709080       -2.6016961168
 C       -13.4840207288        9.1189400102       -1.2549237305
 O       -14.3490982171        9.9710491703       -1.4072209288
 C       -12.7195196823        8.7965875894       -0.0058642037
 C       -13.3908674666        9.2664660519        1.3346833744
 C       -12.8036431801        8.6578799418        2.5666577936
 O       -13.0110271691        7.4885165326        2.7420092828
 C       -11.7737100063        9.4220427091        3.5428362760
 C       -10.3533147492        9.1929582413        2.7238364050
 O       -10.1003742924       10.0402613894        1.8751146263
 C        -9.4871357044        7.9701206569        2.8608336167
 C        -8.2961929580        8.0743437322        1.9084044950
 C        -7.4979286601        6.7021590117        1.8133344278
 O        -7.8922345145        5.7440862866        2.4175887869
 C        -6.4735779988        6.5476590110        0.6117358604
 C        -7.5329654313        5.8872271770       -0.5072486857
 O        -7.9633009729        6.7289890378       -1.2503605193
 C        -7.9545977659        4.4418365666       -0.3852759163
 C        -9.1944514016        4.2760043355       -1.3445531643
 C        -9.7353231421        2.8302148397       -1.3059866850
 O        -9.0557520787        2.0040893167       -0.6775594927
 C       -11.1273648413        2.4879532768       -1.9442150705
 C       -11.1734522002        0.9280966245       -2.1191285213
 O       -11.3650814754        0.2200244277       -1.1470764123
 C       -11.0304713897        0.3347140525       -3.5340115007
 C       -10.6314975159       -1.1625977228       -3.5636844417
 C        -9.1778947180       -1.2840072449       -3.0506923613
 O        -8.5353119464       -0.2683683028       -2.8129793582
 C        -8.4618525008       -2.6939491082       -2.9288408884
 C        -8.3187231425       -2.8780819305       -1.2679217767
 O        -9.3839389395       -2.7201495946       -0.6152820105
 C        -7.1833302326       -3.5436404965       -0.5531332973
 C        -6.8351035335       -3.0980830107        0.8744528537
 C        -6.7932885679       -1.6081452431        1.0267618996
 O        -6.9206160738       -0.9242973564        0.0559787004
 C        -6.8064069021       -1.0233040455        2.4521616490
 C        -8.2863038972       -1.0262973443        2.9872417668
 O        -9.2628744834       -0.9183112154        2.2416641635
 C        -8.6829581846       -1.3258433525        4.4456509302
 C        -5.8299618230       -1.8684520892        3.3371581740
 C        -6.3814170386        0.4992638898        2.5035533359
 C        -9.3458422643       -3.8848640634       -3.3217674647
 C        -7.1364213469       -2.6368019740       -3.6011240828
 C       -12.2157763807        2.8408258723       -0.8168984618
 C       -11.3499695956        3.4403937458       -3.1820594030
 C        -5.8349890616        7.8164072392        0.1525985817
 C        -5.4285899941        5.5413679532        1.0418029587
 C       -12.0124404339       10.8628942453        3.8171293624
 C       -11.6841891947        8.6576257553        4.8503226400
 C       -11.3710834394        8.5208709881       -2.6765309459
 C       -13.7167848189        8.8216176959       -3.8284060688
 H       -14.3093290404        5.6406740351       -3.6873398125
 H       -15.3740709632        6.9269204745       -2.8638349546
 H       -14.8446656193        5.3464246118       -2.0179818906
 H       -11.7265461270        9.2288619380       -0.0044699892
 H       -12.5889481477        7.6947586680       -0.0086997138
 H       -14.4575711648        8.9533702910        1.2363298610
 H       -13.2327150788       10.3422680200        1.3316613011
 H       -10.0463119283        7.0968413711        2.6502322658
 H        -9.1136019337        7.8754891789        3.8716781166
 H        -7.6069421834        8.8400357185        2.0552761411
 H        -8.5965848840        8.3435569085        0.8663434012
 H        -8.0374872752        4.1576341376        0.6452662467
 H        -7.1454504552        3.6905729997       -0.6361239532
 H        -8.8014372746        4.4659388737       -2.3154583880
 H        -9.9527285691        5.1047534325       -1.1231842516
 H       -10.2713684246        0.8597898505       -4.1189056663
 H       -11.9888723565        0.6040615843       -3.9558023954
 H       -10.8283459833       -1.6046979425       -4.5375609329
 H       -11.4052783911       -1.6583818616       -2.7885129442
 H        -6.2935238220       -3.3596220571       -1.1427490295
 H        -7.2708746505       -4.5937284698       -0.5856118053
 H        -5.9033776713       -3.6218879566        1.1293186329
 H        -7.5842113343       -3.4821678618        1.5164476171
 H        -9.3820560151       -2.1044659898        4.5134079985
 H        -9.1325994915       -0.4377363501        4.9480129031
 H        -7.7898670997       -1.6344427059        4.9443168496
 H        -6.0358525141       -2.9603670821        3.3775602081
 H        -5.8054794982       -1.5898967783        4.4093583320
 H        -4.8116524866       -1.7673576722        3.0338049342
 H        -7.1430717627        1.0854866409        2.1702442990
 H        -5.5468075448        0.6913274206        1.8328439291
 H        -5.9967660388        0.8293457445        3.4767413806
 H        -9.1411064713       -4.2969089531       -4.2844810446
 H       -10.3923826029       -3.5797100219       -3.4815624162
 H        -9.3335606860       -4.6867231262       -2.6445264097
 H        -6.4819616854       -3.4601046287       -3.5293685305
 H        -6.4764841604       -1.7936331095       -3.1878760167
 H        -7.2416935754       -2.5103933625       -4.6782562193
 H       -13.1984082226        3.2316628711       -1.1890359880
 H       -11.8990360341        3.5504325543       -0.0954001921
 H       -12.5720260014        1.9598746955       -0.2622123061
 H       -12.1623048626        3.1497827797       -3.8064356286
 H       -10.5187718191        3.5213009028       -3.8227307765
 H       -11.4878756147        4.5052966815       -2.8698805820
 H        -5.4611970969        8.3541881576        1.0137107603
 H        -6.4595702517        8.4874473431       -0.3897757869
 H        -4.9211075319        7.5583066345       -0.3686449038
 H        -4.6744752939        5.4985623435        0.3079418901
 H        -5.9321566486        4.6368558246        1.1330747213
 H        -4.9829724981        5.8470180334        1.9483218430
 H       -11.3853394166       11.1412540935        4.5953022872
 H       -13.0156014131       11.1933542095        4.0733030149
 H       -11.6752905848       11.4436271704        2.9128786921
 H       -12.5017178597        8.9740294371        5.4908827383
 H       -10.7471416033        8.7344570754        5.4507211410
 H       -11.8701230982        7.6385276543        4.6671412194
 H       -10.8866903268        7.9896993181       -1.8631719261
 H       -11.0774987307        9.5845454259       -2.6878403385
 H       -10.9081586913        8.1486834018       -3.5548325911
 H       -13.3363742871        8.4344643076       -4.7397335559
 H       -13.7914146598        9.9615956170       -3.7889728123
 H       -14.7802622179        8.5526529305       -3.8075063351
 Na       -9.2402868597       -0.2989927612       -0.2251691720
