117

 C       -14.3255894490        6.1313283306       -2.2397006443
 C       -12.9773520954        6.7990868341       -2.4567987958
 O       -11.9290816917        6.1613107790       -2.2699082234
 C       -12.9210128895        8.2686594770       -2.7753229713
 C       -13.2899163928        9.0334799059       -1.4189786529
 O       -14.2331267736        9.7344309373       -1.3470100562
 C       -12.3402565892        8.8041585042       -0.2551241336
 C       -12.6152114129        9.7263223221        0.9522628379
 C       -12.5878988973        9.0015603172        2.2588358967
 O       -13.2677446243        8.0235003948        2.4371735326
 C       -11.6104457746        9.5728687774        3.5054378440
 C       -10.2112975523        9.5043550518        2.8829651387
 O        -9.8868291464       10.4708079837        2.1714309907
 C        -9.3249421672        8.2692297235        2.8642610697
 C        -8.2142267192        8.3580649725        1.8456100574
 C        -7.4642328641        6.9848733942        1.7151405410
 O        -7.7277901637        6.0405437416        2.4147903850
 C        -6.5413881953        6.7504389710        0.4194439502
 C        -7.5528844313        6.1637521610       -0.7072311292
 O        -8.0025867292        6.9558579713       -1.5077458013
 C        -8.0632285595        4.7445722619       -0.6147619015
 C        -9.3418684398        4.3689798851       -1.4272087648
 C        -9.8429767830        2.9172912750       -1.2005517251
 O        -9.3512781282        2.2748103282       -0.2889943736
 C       -11.0787867116        2.4909749976       -1.9875934662
 C       -11.0503576581        0.9049353505       -2.1236903231
 O       -11.1020867767        0.1169063303       -1.1780522468
 C       -10.8036815699        0.2668335895       -3.4975053729
 C       -10.6700063574       -1.3173989534       -3.4771964558
 C        -9.4232269558       -1.7324127880       -2.6878620301
 O        -8.7601991322       -0.8086983505       -2.2688896246
 C        -8.8770540764       -3.2337384168       -2.5200843885
 C        -8.3769273783       -3.2112468694       -1.0331447534
 O        -9.1664296017       -2.6738558332       -0.2228435539
 C        -7.1080441113       -3.8657765664       -0.6365065323
 C        -6.7960916607       -3.4206265022        0.8221884035
 C        -6.9730323806       -1.8480786532        1.0316970460
 O        -6.9402689746       -1.0649307526        0.1142277971
 C        -6.9062621187       -1.2936198048        2.5453147550
 C        -8.3568090750       -1.1374681247        2.9945750045
 O        -9.1885133083       -0.7291124142        2.2022019871
 C        -8.8585974474       -1.3664638414        4.4011217285
 C        -6.0885997388       -2.2544813632        3.4226379676
 C        -6.3299756718        0.1235023008        2.7015555712
 C        -9.9786566610       -4.3204349363       -2.7419538304
 C        -7.7620870237       -3.1985176541       -3.5233630901
 C       -12.2953747049        2.8028730636       -1.0515298492
 C       -11.2164261005        3.2043672382       -3.3205074304
 C        -5.7913222427        7.9696419872       -0.0679968727
 C        -5.4866968701        5.7373847656        0.8673544455
 C       -12.0198034563       11.0081229287        3.8567819603
 C       -11.8254808108        8.6998819855        4.7621413021
 C       -11.5826120665        8.6652639445       -3.3564057906
 C       -14.1117408843        8.5765167526       -3.6904993325
 H       -14.9202102430        6.3918078685       -3.0733877552
 H       -14.8388349325        6.4412315967       -1.2824009954
 H       -14.1755837250        5.1063003798       -2.0324816698
 H       -11.2991391934        8.9226753490       -0.4874129331
 H       -12.4086824704        7.7374623700        0.1530003102
 H       -13.6324333780       10.1661948603        0.8862788080
 H       -11.9150527792       10.5485317593        1.0347327024
 H       -10.0013693555        7.3686014833        2.7628806250
 H        -8.9900790504        8.1695535415        3.9432362223
 H        -7.6013175984        9.1679078047        2.2028433320
 H        -8.6512512217        8.5798989339        0.7941913682
 H        -8.3929976555        4.6111306811        0.4343220956
 H        -7.2507864247        4.0173251514       -0.7329492217
 H        -9.1895277677        4.5805012647       -2.5153282612
 H       -10.1339654946        5.0720866679       -1.2226429581
 H        -9.8684632746        0.6844947630       -3.9145781328
 H       -11.5912735936        0.6215713887       -4.1575882640
 H       -10.7896553961       -1.6949736060       -4.3952387599
 H       -11.5174289384       -1.7275027031       -2.8786466819
 H        -6.3059924100       -3.4862360097       -1.3309856952
 H        -7.1970476887       -4.9661756239       -0.8388199794
 H        -5.7223018102       -3.6506120044        0.9900684110
 H        -7.4675214535       -4.0492496045        1.4623596514
 H        -9.5543357182       -0.5954814849        4.6676959815
 H        -7.9723234181       -1.4920333682        5.1079640086
 H        -9.4361632505       -2.2835016161        4.4297319724
 H        -6.5037557636       -3.2562876811        3.5773024518
 H        -5.8355725814       -1.9101662001        4.4507291546
 H        -5.1105186689       -2.4648238900        2.9989538792
 H        -7.0077380306        0.8855044576        2.3329644198
 H        -5.3360044419        0.2410745317        2.2037892502
 H        -6.2512700115        0.3812765567        3.8227648823
 H        -9.9276658593       -4.6080013924       -3.8200298401
 H       -11.0014869343       -3.8514141852       -2.5141486835
 H        -9.9324285344       -5.1955592841       -2.0475892559
 H        -7.2937891427       -4.0871985145       -3.7732556656
 H        -6.9430219153       -2.4435806993       -3.3937140582
 H        -8.1671876710       -2.8533472872       -4.4571777342
 H       -13.2150480468        2.7387433025       -1.6924010369
 H       -12.2612448881        3.7809459939       -0.6426139353
 H       -12.3719104954        2.1398836614       -0.1809064452
 H       -12.1025561482        2.8425258218       -3.8056510644
 H       -10.3718363880        2.9740501852       -3.9356408166
 H       -11.3720213642        4.3051197560       -3.1856677274
 H        -5.1790864817        8.4298668705        0.7419272357
 H        -6.3497982666        8.7454018579       -0.6248722285
 H        -5.1281523788        7.5926859880       -0.8993739723
 H        -5.0008967484        5.2916575876       -0.0004623866
 H        -6.0131202642        4.8853960076        1.4279057294
 H        -4.6604688075        6.0865134457        1.5577147333
 H       -11.7868986055       11.3906954811        4.7998332580
 H       -13.1121374788       10.8593283445        3.8062025620
 H       -11.7256432805       11.7873261768        3.0931724333
 H       -12.8037253326        8.9702823442        5.2544074532
 H       -11.0739137630        9.0865125266        5.5015018070
 H       -11.8125940936        7.6329305651        4.6207464217
 H       -10.7822454093        8.2092441322       -2.8038596697
 H       -11.3441882552        9.7179298308       -3.2688306939
 H       -11.5586280472        8.3128853614       -4.3395337822
 H       -13.9825367296        8.1153275655       -4.6564704936
 H       -14.1617030584        9.6638622863       -3.9561188439
 H       -15.0187065568        8.2372176570       -3.2625924315
 Na       -9.0848449947        0.0506463927        0.0549687775
