117

 C       -14.2964416399        6.2627668905       -1.8409109310
 C       -13.0634080114        6.7480428003       -2.4983827347
 O       -12.0878064958        6.0087326721       -2.7159909083
 C       -13.0356936894        8.2865914235       -2.8907443165
 C       -13.2249872168        9.1600018430       -1.5777629786
 O       -14.1357736258        9.9221028348       -1.5096045467
 C       -12.2327616335        8.8661057138       -0.4174850874
 C       -12.4418747489        9.7830349496        0.7558470131
 C       -12.1905276650        9.0848845300        2.0778243372
 O       -12.5292211890        7.9405739661        2.2815331044
 C       -11.6268733598        9.8425911891        3.3422908311
 C       -10.0088295834        9.8879249476        2.9860821830
 O        -9.4608032894       10.9618702875        2.7138224991
 C        -9.3151131411        8.5669027854        2.7839245144
 C        -8.1378515854        8.6321747837        1.7337492816
 C        -7.5302765553        7.2469181995        1.5578983752
 O        -7.7276119325        6.3866791434        2.3961161076
 C        -6.7875970374        6.8308716832        0.2176325442
 C        -7.7566297015        6.1412942557       -0.6830090064
 O        -8.2442888915        6.7305571385       -1.6564283102
 C        -8.1589302155        4.7227877604       -0.3888179096
 C        -9.1966577678        4.2737651526       -1.4458957473
 C        -9.4794376198        2.7771166878       -1.3755979218
 O        -8.7405752539        1.9799505213       -0.9274317137
 C       -10.9758375468        2.3767819179       -2.0002053704
 C       -10.9831509729        0.8433273702       -2.1325672828
 O       -11.2553237388        0.1671258133       -1.1001658441
 C       -10.7917965688        0.0553016167       -3.4306797771
 C       -10.8349370748       -1.4562522741       -3.2584101065
 C        -9.5088740694       -1.8663558880       -2.6415177808
 O        -8.5653554189       -1.1131836531       -2.5203957115
 C        -9.3371601624       -3.3512688152       -2.2369354723
 C        -8.6254585265       -3.1263512232       -0.8847152680
 O        -9.3162259659       -2.6521964683        0.0197265266
 C        -7.2181501597       -3.5920428236       -0.6335098095
 C        -6.7636580695       -3.4218639559        0.8957865269
 C        -6.6965191456       -1.8901169877        1.3452521725
 O        -6.6821702315       -0.9836014758        0.5426462028
 C        -6.8894863172       -1.4928739167        2.8923544325
 C        -8.4464825992       -1.1497288738        3.1298111351
 O        -8.9694768057       -0.2608802636        2.4910561089
 C        -9.1604460176       -1.8112633213        4.2454310793
 C        -6.4930781192       -2.6645776782        3.8547064578
 C        -6.1022459453       -0.1903141693        3.1585181063
 C       -10.6754033580       -4.0871522026       -2.0844464418
 C        -8.4563710483       -4.0339076097       -3.2786526862
 C       -12.0398637942        2.8820881834       -0.9276282521
 C       -11.1268785473        3.0668388939       -3.4121559157
 C        -6.1038148717        8.0303912659       -0.5416247050
 C        -5.5830047859        5.8705644525        0.5958567907
 C       -12.0144621977       11.3054937644        3.4473273826
 C       -11.8003600168        9.0802670107        4.6851165994
 C       -11.6358605329        8.6028142872       -3.5452125104
 C       -14.1312608909        8.6213061713       -3.9075207873
 H       -14.1681731832        5.2314799519       -1.5685108227
 H       -15.1849620898        6.4281649773       -2.5200325836
 H       -14.3858490075        6.8118849213       -0.9274022708
 H       -11.1976690169        8.7143235925       -0.7088511335
 H       -12.5919552684        7.9144600256       -0.0506527801
 H       -13.4655197126       10.2146425772        0.7482536443
 H       -11.8690185300       10.7213309026        0.7070993833
 H       -10.1014096889        7.9509938660        2.3564827679
 H        -8.9535905484        8.1953273805        3.6868905562
 H        -7.3394878172        9.2830674295        2.0747736746
 H        -8.5721839273        8.8645677352        0.7662677008
 H        -8.6641751171        4.8012697144        0.6082435038
 H        -7.3130887502        4.0611368329       -0.4121754482
 H        -8.9872477062        4.5575683342       -2.5309680658
 H       -10.0668702697        4.7911314906       -1.2673819963
 H        -9.8262017018        0.3546390645       -3.8769755378
 H       -11.5795024653        0.3946556141       -4.1233201631
 H       -11.0487641863       -2.0069309688       -4.1565126688
 H       -11.6869868226       -1.7805949789       -2.5043753030
 H        -6.6223592389       -2.9524317152       -1.2378941549
 H        -7.1190784773       -4.5989735245       -1.0328153715
 H        -5.8825962396       -3.9830723886        1.0921444402
 H        -7.5229161838       -3.9718828882        1.5028468075
 H       -10.1037846651       -1.3723325279        4.1402465460
 H        -8.7769124253       -1.6878553215        5.3132362902
 H        -9.2566408055       -2.8697191692        4.0459177362
 H        -7.0673020142       -3.5750977536        3.8372852109
 H        -6.5852195722       -2.2277188546        4.8665202066
 H        -5.4316185922       -2.9872587379        3.7910813356
 H        -6.4954233780        0.5978380469        2.6257837969
 H        -5.0924432079       -0.3051577579        2.8982675952
 H        -6.1107850080        0.0158914055        4.2575160355
 H       -10.8449113161       -4.3672140441       -3.0880285793
 H       -11.4388102200       -3.3777432070       -1.7638386838
 H       -10.5535333755       -4.9719147443       -1.5171174136
 H        -8.2716621890       -5.0662244921       -3.1422570601
 H        -7.4366909617       -3.5256488737       -3.4043897141
 H        -8.9483368020       -4.0213368001       -4.2456019889
 H       -13.0097208190        2.3717123327       -1.1181950895
 H       -12.2424414374        3.9071101814       -1.1601597573
 H       -11.7164409776        2.7394802245        0.1014242576
 H       -12.0712580657        2.7399122193       -3.8246887311
 H       -10.3190582631        2.6839269266       -4.0519817102
 H       -11.0616330877        4.1783368823       -3.2845396506
 H        -5.3445611937        8.5586548828        0.0124281516
 H        -6.8257072450        8.7435398052       -0.8940044226
 H        -5.5463374618        7.5333673234       -1.3614451832
 H        -5.2115516494        5.3096692118       -0.1973769790
 H        -6.0276923866        5.0616096993        1.2852669578
 H        -4.6801291529        6.2865726391        1.0602512453
 H       -11.6820452370       11.6465994276        4.3778630093
 H       -13.1069427117       11.4061747129        3.3795608905
 H       -11.5941429525       11.8459197251        2.5517520683
 H       -12.9020144834        9.2027144586        4.7998764001
 H       -11.2769913592        9.5049658121        5.5548426479
 H       -11.4729571738        8.0609652993        4.6250973642
 H       -10.8020587576        8.1090044856       -2.9703521962
 H       -11.5740055513        9.7122325992       -3.7189981084
 H       -11.5959651290        8.2178730770       -4.5669577941
 H       -13.9713074973        7.9831992092       -4.7874483329
 H       -14.0814477643        9.7090350380       -4.1876819771
 H       -15.1037575947        8.5008311091       -3.5603269640
 Na       -9.0985578396       -0.2776468133       -0.1237864195
