117

 C       -14.2836147850        6.0843953234       -1.9323026594
 C       -13.0120865647        6.8040863058       -2.4978045630
 O       -11.9942726858        6.1256568304       -2.5942978529
 C       -12.9866180796        8.3112625423       -2.7916298170
 C       -13.3529642225        9.0156213830       -1.4167333205
 O       -14.2855811567        9.7466342731       -1.3449745392
 C       -12.3203789282        8.7574839938       -0.3164740910
 C       -12.4225169529        9.7785670297        0.7887995816
 C       -12.4588495275        9.1065525040        2.1424877116
 O       -13.0903370673        8.0738362230        2.3121371194
 C       -11.5429857281        9.6076447727        3.2631077652
 C       -10.0467462903        9.7923816305        2.8628592439
 O        -9.6255809963       10.8813732117        2.4913142337
 C        -9.2623622683        8.4554592484        2.8137958873
 C        -8.1797870827        8.3857041388        1.7197635275
 C        -7.5109767250        6.9857431976        1.7152112704
 O        -7.7447068993        6.1336423394        2.5195457966
 C        -6.6291638054        6.7908901971        0.4090819622
 C        -7.6901197822        6.1677805627       -0.6599550394
 O        -8.0203072109        6.9268414472       -1.5339111966
 C        -8.2430849667        4.7956893871       -0.4581334902
 C        -9.3354449307        4.3326564432       -1.4973879618
 C        -9.6875708171        2.9099245464       -1.2551554584
 O        -9.0879561741        2.1922155727       -0.5006932345
 C       -11.0950083029        2.4327646855       -1.9801008822
 C       -11.0528461611        0.8834878286       -2.1844998099
 O       -11.1227352453        0.1479522106       -1.1514588499
 C       -11.0225758899        0.2653619854       -3.5260632539
 C       -10.7416096249       -1.2633820604       -3.3599667104
 C        -9.3528757382       -1.6366314316       -2.7136308666
 O        -8.4849298861       -0.8009251581       -2.4779038131
 C        -9.0721322967       -3.1926462887       -2.4568213440
 C        -8.6013635793       -3.2763829565       -0.9173034506
 O        -9.3417761115       -2.9553506477        0.0168354922
 C        -7.1762616795       -3.6213152511       -0.6464472829
 C        -6.6989798467       -3.3658758751        0.8363375164
 C        -6.8926700996       -1.8561438204        1.2239741843
 O        -6.9533324065       -1.0691935663        0.2729915815
 C        -6.9452444407       -1.4118512020        2.7649267323
 C        -8.4040860272       -1.0928112962        3.1090083855
 O        -9.0789710699       -0.4368269975        2.3229893785
 C        -8.9657309711       -1.7525145896        4.4200492744
 C        -6.2550533283       -2.4072838214        3.7064344865
 C        -6.0983406658       -0.0720696046        2.7148741387
 C       -10.3445712414       -4.1921101743       -2.4977785488
 C        -7.8813839394       -3.7454774279       -3.3009385475
 C       -12.2568213558        2.8487422489       -1.0139445063
 C       -11.2235739788        3.2074225249       -3.3899481674
 C        -6.1249735060        8.1006834493       -0.1654851832
 C        -5.5235919920        5.8065165803        0.7090380214
 C       -12.0308340553       11.0548258484        3.6961700088
 C       -11.6418759367        8.6416040193        4.5215855098
 C       -11.5841588673        8.6903092528       -3.3860748963
 C       -14.0304914735        8.5830481712       -3.8679066433
 H       -14.5376133251        5.3408806863       -2.7111585774
 H       -15.2215705313        6.6995670909       -1.7172701840
 H       -13.9489905461        5.6690787218       -1.0027568871
 H       -11.2710429208        8.6369255587       -0.5987723967
 H       -12.5988487786        7.7897607212        0.0802038323
 H       -13.3673981825       10.3374537640        0.6555262111
 H       -11.6644366353       10.5889906797        0.7082072495
 H       -10.0207529496        7.6780233855        2.6238302572
 H        -8.8441008740        8.2470982288        3.7660107575
 H        -7.4185080783        9.0677655103        2.0501839297
 H        -8.5695282564        8.5427021806        0.7641384537
 H        -8.6329002882        4.7660881711        0.6100295002
 H        -7.3891283202        4.1315903846       -0.6333526410
 H        -8.8376840777        4.4807919868       -2.5213758000
 H       -10.1742335493        4.8985788426       -1.6311189355
 H       -10.3674252961        0.8218384649       -4.2036919495
 H       -12.0506660433        0.4594415087       -3.8718456140
 H       -10.8055632029       -1.8288077074       -4.2781686169
 H       -11.6052911826       -1.6744187543       -2.7751325762
 H        -6.5851040901       -2.9518659237       -1.2069751858
 H        -6.9533695648       -4.6298679552       -0.9941752709
 H        -5.6908429704       -3.5268253921        0.7289644056
 H        -7.0694145760       -4.1341118547        1.5044285091
 H        -9.4335593567       -1.0364210957        5.0284827877
 H        -8.1998936078       -2.2850158116        5.0227880011
 H        -9.7314625876       -2.5055821954        4.1775901629
 H        -6.7759838195       -3.3186202818        3.7149925386
 H        -6.0740775362       -2.0602017473        4.7111475651
 H        -5.2527307207       -2.7660039104        3.3982150180
 H        -6.3778044383        0.4894595690        1.8971959806
 H        -5.0514118604       -0.3590994933        2.5551180354
 H        -6.2267706441        0.5662499670        3.5767046799
 H       -10.6330369286       -4.4287010001       -3.4861969282
 H       -11.0949345915       -3.6784949671       -1.9403826271
 H       -10.0329203156       -5.0309523511       -1.9024567299
 H        -7.5148915370       -4.6585900083       -2.8558441750
 H        -7.0577673634       -2.9870343703       -3.3226894676
 H        -7.9455810389       -4.0254402993       -4.3590646657
 H       -13.2356928182        2.9591587713       -1.5257771025
 H       -12.0579342290        3.8214614187       -0.5266729035
 H       -12.2767366452        2.1379195022       -0.2002602892
 H       -12.1403867869        2.9433550585       -3.9133684751
 H       -10.3585661174        2.9344331288       -4.0461949706
 H       -11.2150455789        4.2719260809       -3.1872451669
 H        -5.5946719873        8.5781706741        0.5804038480
 H        -6.8568587161        8.7600289919       -0.5430271826
 H        -5.3937438673        7.9128604680       -0.9573198163
 H        -4.7999943292        5.6701686523       -0.0024979051
 H        -5.8690314959        4.8733371199        1.0422505877
 H        -4.9754530067        6.2206374006        1.4986311808
 H       -11.1803999309       11.4406925085        4.2107470353
 H       -12.9557361087       11.2001365043        4.2458882416
 H       -12.0293870144       11.6472006743        2.7703029602
 H       -12.6279355737        8.5312242538        4.9790059849
 H       -10.9698266085        9.0083673950        5.2561399748
 H       -11.2084740074        7.7205229120        4.2075001788
 H       -10.7944831526        8.5057636686       -2.6223266509
 H       -11.4837571836        9.8131989813       -3.6200147684
 H       -11.3392456711        8.0383398185       -4.1858662929
 H       -13.7710062674        8.0331256160       -4.7314148272
 H       -14.0714688110        9.6473087504       -4.3018073642
 H       -15.0464739408        8.3201386921       -3.4809899596
 Na       -9.0748076279       -0.1923465480       -0.0562101034
