117

 C       -14.2641330142        6.2152681328       -1.9083372950
 C       -12.9730978491        6.7684231924       -2.4621536578
 O       -11.9457439312        6.0945392810       -2.7095166711
 C       -13.0211604800        8.2676269603       -2.8305026789
 C       -13.3208567491        9.0881389525       -1.5771872928
 O       -14.2921910468        9.7436129541       -1.3712144383
 C       -12.3809400154        8.7988652785       -0.3898624430
 C       -12.3734789267        9.7676457469        0.7805156274
 C       -12.3552719417        9.0750027590        2.1263487761
 O       -12.9993472813        8.0727956055        2.2217426982
 C       -11.4460039562        9.7088532057        3.3371244977
 C       -10.0572335474        9.8286828620        2.8209498293
 O        -9.5591261476       10.9454739825        2.5970236511
 C        -9.2919544688        8.5205495049        2.7703954256
 C        -8.1629298948        8.4602719023        1.7824790624
 C        -7.5866595655        7.0266538622        1.6418388253
 O        -7.7045663528        6.1617227698        2.5201206982
 C        -6.6929505325        6.7838187934        0.4070493697
 C        -7.7580184765        6.1982310362       -0.7118842123
 O        -8.0922059511        6.9340143358       -1.6339325631
 C        -8.2491796440        4.7521596902       -0.4130334114
 C        -9.2937441110        4.3268485870       -1.4759532349
 C        -9.7329870886        2.8275627350       -1.2806902871
 O        -9.0309065615        2.0467269211       -0.7050838769
 C       -11.0875208690        2.4075587096       -1.9460186597
 C       -11.1871856407        0.8634135338       -2.0845459366
 O       -11.0474943733        0.2214471651       -1.0508070444
 C       -11.0103067607        0.1212577531       -3.4770945940
 C       -10.6531168906       -1.3805333271       -3.4559530224
 C        -9.3654083501       -1.6418711884       -2.8159790880
 O        -8.4555576885       -0.8821818314       -2.6151146330
 C        -9.0823902372       -3.2049047885       -2.2868086829
 C        -8.5793832305       -3.2172408569       -0.9001241697
 O        -9.4438251771       -3.0281699011       -0.0179645259
 C        -7.0962016214       -3.6293669417       -0.6236795950
 C        -6.7348427038       -3.3421894209        0.9049090439
 C        -6.8476549534       -1.8931265641        1.2396828427
 O        -6.9897180220       -1.0612529283        0.3942128471
 C        -6.7887130938       -1.4229146749        2.7401121302
 C        -8.3562425079       -1.1313460052        3.1044602977
 O        -9.0480986507       -0.4311319307        2.4027249758
 C        -9.1947581724       -1.6982425299        4.2701177954
 C        -6.2231150642       -2.4559917390        3.6952648995
 C        -6.0204729446       -0.0704160464        2.9060753547
 C       -10.4109149280       -4.0482500795       -2.3359891859
 C        -8.1624058176       -3.7864125433       -3.3666905699
 C       -12.1695463302        2.9628043784       -1.0501369650
 C       -11.1530158211        3.1623481523       -3.3144388908
 C        -6.1196309023        8.0426975306       -0.2542350659
 C        -5.4367824880        5.8158493746        0.6510239375
 C       -12.0776677714       11.1162814539        3.7623087823
 C       -11.6562453062        8.7928590597        4.6110198935
 C       -11.5871776500        8.6357205647       -3.3700924651
 C       -14.1315657628        8.5261778769       -3.9015002384
 H       -14.5532385353        5.3235995772       -2.4618893563
 H       -15.0074382443        7.0057276534       -2.1805351558
 H       -14.2905593615        6.1456478723       -0.7901789544
 H       -11.3539078357        8.5889212710       -0.6615415103
 H       -12.7805677262        7.8059781043        0.0079715280
 H       -13.3122234678       10.3413316720        0.6400003481
 H       -11.6353242337       10.5586428096        0.7167292039
 H        -9.9853953360        7.6595670908        2.5788462637
 H        -8.9140728175        8.4506252748        3.8373179596
 H        -7.3880141675        9.0599159888        2.1084943083
 H        -8.6015729075        8.6683894589        0.7825591037
 H        -8.7910180784        4.8865839233        0.5503134054
 H        -7.3704283191        4.0832930738       -0.3862020601
 H        -8.8534675208        4.4314513833       -2.4827402166
 H       -10.1046994837        5.0585588148       -1.5824463074
 H       -10.1616576913        0.7002249808       -3.8857266049
 H       -11.8305660396        0.2759808306       -4.1746164602
 H       -10.6041386454       -1.7667392641       -4.3834208351
 H       -11.4731954766       -1.9473851159       -2.9978663067
 H        -6.3883372284       -3.1057101032       -1.3017831978
 H        -7.1021404493       -4.6986099553       -0.8814257219
 H        -5.8182942925       -3.8102825840        1.2580734776
 H        -7.5230783530       -3.8551586966        1.4176873846
 H        -9.7807325087       -0.9439728541        4.7673142395
 H        -8.4975685955       -2.2027748742        5.0246519703
 H        -9.8143148436       -2.4667314974        3.9129743911
 H        -6.7685513437       -3.4200648151        3.7217607965
 H        -6.0727756697       -2.0328272251        4.6893033361
 H        -5.2513154592       -2.7957039227        3.4602845707
 H        -6.2560659032        0.6393724792        2.1112025521
 H        -4.9740574631       -0.2327484283        2.8892192643
 H        -6.3618549121        0.4056446957        3.9146938329
 H       -11.0168799530       -3.7257524059       -3.1699605835
 H       -10.8734416743       -3.8713141336       -1.3134861449
 H       -10.0902732821       -5.0573824353       -2.4309257407
 H        -7.9031773584       -4.7921293029       -3.1772379868
 H        -7.1959357446       -3.1804190541       -3.4334026029
 H        -8.4826905688       -3.8324838509       -4.4035424497
 H       -13.1986865441        2.6416650148       -1.3574292092
 H       -12.1890341239        4.0299082862       -1.0902122908
 H       -11.9226906067        2.6788512543       -0.0028544121
 H       -12.0878099778        2.9870527022       -3.7912168860
 H       -10.3989638725        2.7955751473       -3.9399898779
 H       -10.9824644058        4.2472268838       -3.1016127240
 H        -5.4822767513        8.5265213584        0.5050777514
 H        -6.7995793237        8.7848021859       -0.6128005033
 H        -5.3923917882        7.7356844014       -0.9777817365
 H        -4.8763289965        5.4935289704       -0.1414145998
 H        -5.6571886147        4.9357382965        1.2532004710
 H        -4.7162461048        6.3768746871        1.1695879466
 H       -11.4491808625       11.6766132568        4.3880189264
 H       -13.0555256392       10.9248666794        4.1865534310
 H       -12.2621871080       11.6710726928        2.8059714290
 H       -12.6322956072        8.7896001160        5.0559911315
 H       -10.8967044235        9.1166809352        5.3439760544
 H       -11.2678051614        7.8771843494        4.3285462847
 H       -10.7569270194        8.4262135870       -2.6698663682
 H       -11.5829256142        9.6728138431       -3.5444825135
 H       -11.3499468306        8.0825259723       -4.2656632510
 H       -13.9156793078        8.0121229182       -4.9193276228
 H       -14.1332589175        9.6082872054       -4.2205215142
 H       -15.0897870707        8.3427662597       -3.5026618926
 Na       -9.0837953446       -0.2729885418        0.0531853636
