117

 C       -14.2885375553        6.1021541155       -2.1216748626
 C       -12.9718218976        6.7046150232       -2.4380627817
 O       -11.8914068878        6.1105859244       -2.3809402263
 C       -12.9753911750        8.2413244503       -2.7576738631
 C       -13.2963725306        9.0100483697       -1.4269170258
 O       -14.2633358630        9.7374152708       -1.3488748476
 C       -12.3061097161        8.7525110518       -0.2890528577
 C       -12.5429488362        9.8059877156        0.8791478410
 C       -12.5535089682        9.0438847098        2.2549892046
 O       -13.2282986293        8.0586429854        2.4304666325
 C       -11.6618915837        9.5811767517        3.3906030851
 C       -10.1063285325        9.6085385357        2.8627778888
 O        -9.6678492809       10.5485151859        2.2238403510
 C        -9.2814186266        8.2830615431        2.9136187357
 C        -8.2233584752        8.3604646741        1.8005007214
 C        -7.5697932933        7.0407254313        1.5986544675
 O        -7.7196847276        6.1470493706        2.4371689479
 C        -6.5765973238        6.7691820682        0.3555071930
 C        -7.5842823927        6.2205129198       -0.6439952516
 O        -8.0562216065        6.9105417565       -1.5468386206
 C        -8.0553519172        4.7388211817       -0.4442088788
 C        -9.2418460126        4.4491282907       -1.3530999802
 C        -9.8044904268        2.9811355574       -1.2060993900
 O        -9.2778792041        2.3272884951       -0.3176705244
 C       -11.1237481409        2.4223699351       -2.0511538841
 C       -11.0045064074        0.8562214871       -2.1138934274
 O       -11.1428999125        0.2228808737       -1.1198030096
 C       -10.7755873244        0.0913063719       -3.5580606431
 C       -10.7397637103       -1.3827121146       -3.4104525892
 C        -9.5088052781       -1.6675755117       -2.6594816037
 O        -8.7043414010       -0.8137254245       -2.3142690577
 C        -9.0361910169       -3.1288357843       -2.5408372334
 C        -8.5289284742       -3.2067298921       -0.9816171354
 O        -9.1801114832       -2.7283503609       -0.0739919476
 C        -7.1131237732       -3.7225787576       -0.6061705565
 C        -6.6685971128       -3.3481004599        0.8596653091
 C        -6.8313386269       -1.8636399274        1.1046194019
 O        -6.9813144383       -1.1283320556        0.1532568391
 C        -6.9093520932       -1.4079778485        2.6165842225
 C        -8.4835989253       -1.1287538426        3.0644504643
 O        -9.1964333637       -0.5761296453        2.2549569960
 C        -8.8955775897       -1.5016400128        4.4805092026
 C        -6.0823104450       -2.3678834189        3.4595011915
 C        -6.2613124603        0.0646656325        2.6552897989
 C       -10.0660424227       -4.2463983684       -2.7763259645
 C        -7.7753014427       -3.4233141750       -3.4623550448
 C       -12.2672020900        2.7177772565       -1.0282766288
 C       -11.3094051424        3.2021500043       -3.4094800667
 C        -5.8469076998        8.0573355630       -0.0558290117
 C        -5.5427641026        5.7214652843        0.8486094246
 C       -12.0735315218       10.9917117454        3.7831933664
 C       -11.7872466746        8.6414093614        4.6618123006
 C       -11.6006701145        8.7017182972       -3.3332154491
 C       -14.1289026094        8.6900520258       -3.7891825424
 H       -14.8627328810        6.0969203632       -3.0186332894
 H       -14.7804833086        6.7448622072       -1.4277862684
 H       -14.1941517471        5.1765197275       -1.5358468279
 H       -11.2446103780        8.8016100731       -0.5322279527
 H       -12.4502371974        7.7159371316        0.0866651527
 H       -13.5797499911       10.1938928214        0.8694782032
 H       -11.9045145868       10.6791684275        0.8135269051
 H        -9.9931281566        7.4827239639        2.8217455569
 H        -8.8495963735        8.1035663440        3.9205872607
 H        -7.4989637756        9.0855872265        2.2198376446
 H        -8.6480241269        8.6577156251        0.7814728014
 H        -8.3204268997        4.5210773541        0.5586849002
 H        -7.2247807895        4.0841255503       -0.7510714057
 H        -8.8355792948        4.5820773526       -2.3175048504
 H       -10.0460111624        5.2989664561       -1.4062530206
 H        -9.7947835379        0.3010243014       -4.0055346864
 H       -11.5124552871        0.4898617002       -4.2647317253
 H       -10.7031552469       -1.8874792525       -4.3980466010
 H       -11.6157229653       -1.8465854728       -2.9234685991
 H        -6.3740756016       -3.2242909241       -1.2914088821
 H        -6.9972951673       -4.7905507856       -0.7730366990
 H        -5.6022779450       -3.8111967518        0.9501168910
 H        -7.3866006782       -3.8875986301        1.5015083142
 H        -9.4648466488       -0.6366775108        4.8885972238
 H        -7.9871676196       -1.7846378091        5.0792718607
 H        -9.5862969829       -2.3194214095        4.4883636226
 H        -6.6352583292       -3.3538031906        3.5403207753
 H        -5.8489522561       -2.0886836362        4.4882807945
 H        -5.1530657263       -2.6738923371        3.0705532781
 H        -6.9773742403        0.7727146674        2.1871152154
 H        -5.3423544388        0.1473688262        2.1671632780
 H        -6.2135753644        0.4591904155        3.7219753513
 H        -9.8162980920       -4.6819253550       -3.7584389747
 H       -11.1351918479       -3.8531110086       -2.8009996484
 H       -10.0763199555       -4.9764248933       -1.9651448154
 H        -7.4179254644       -4.4415246508       -3.4909077663
 H        -6.9504204535       -2.7345677773       -3.3752728623
 H        -8.0220395482       -3.2385299279       -4.5005861501
 H       -13.1571919715        3.0303945041       -1.5693015854
 H       -12.0208136729        3.5151983063       -0.3468209239
 H       -12.4927756852        1.8655107902       -0.3680050603
 H       -12.0957485851        2.7361012837       -4.0388959620
 H       -10.3889844179        3.2167901014       -3.9616830124
 H       -11.6567115228        4.2453635447       -3.1554607174
 H        -5.2597444142        8.4804555696        0.8227152727
 H        -6.4621343113        8.8484634966       -0.5274276744
 H        -5.1714231034        7.8181133307       -0.8591610938
 H        -4.8121567057        5.5727021845        0.0034854195
 H        -5.9404200661        4.6640922773        1.1508833937
 H        -4.8670417539        6.0565564013        1.7174299444
 H       -11.5225947536       11.3134328392        4.6799261214
 H       -13.1572784304       11.0209338558        4.0000912719
 H       -11.8029368690       11.7214928693        3.0035610234
 H       -12.7760372615        8.7340107400        5.1395207716
 H       -11.0617566636        9.0157289778        5.4435461933
 H       -11.5846806647        7.5913286368        4.3996708868
 H       -10.7394693431        8.3895295525       -2.7168271120
 H       -11.4860776168        9.7396457674       -3.4046453150
 H       -11.5187236497        8.1424019458       -4.3129563463
 H       -13.9680411805        8.2597209711       -4.8077539056
 H       -14.1240887487        9.7100296880       -3.9962432521
 H       -15.0516012955        8.4124519116       -3.4366996048
 Na       -9.0937166965        0.0032541579       -0.0727478626
