117

 C       -14.3687386240        6.3138555445       -1.8707613676
 C       -13.1075370060        6.7781170229       -2.5074634592
 O       -12.1141802416        6.0571306358       -2.7048848496
 C       -12.9962446105        8.2947677228       -2.9382244507
 C       -13.2005314316        9.1246754825       -1.5657452347
 O       -14.0249570455       10.0456306351       -1.4566918212
 C       -12.2073167260        8.8429317636       -0.3985329639
 C       -12.5234805737        9.7713052827        0.7862827105
 C       -12.2298566939        9.0246929707        2.1116424168
 O       -12.4015063002        7.8321959966        2.1679481141
 C       -11.5464410690        9.9185363671        3.2873065452
 C        -9.9564971199        9.9238963798        2.9024070582
 O        -9.4320468857       10.9878232380        2.7870270719
 C        -9.2758355719        8.5582154436        2.7129322095
 C        -8.1464255910        8.6351699738        1.6778848626
 C        -7.5383863302        7.2238696404        1.5669277233
 O        -7.7651607732        6.3889238114        2.4389131242
 C        -6.7272913094        6.8337862515        0.2179635261
 C        -7.7892792262        6.2032251331       -0.7331578766
 O        -8.2621730171        6.8141291448       -1.6700335643
 C        -8.1698413346        4.6967466469       -0.4385068550
 C        -9.2787733432        4.2359839417       -1.4834613335
 C        -9.5494763415        2.7439546825       -1.4273280155
 O        -8.7422042419        1.9721297018       -0.9319334576
 C       -10.8809707157        2.3521191531       -2.0004057354
 C       -11.0100615951        0.8096382534       -2.1499544314
 O       -11.2877671975        0.1569653912       -1.1431791144
 C       -10.8436756221        0.0643368606       -3.5175629726
 C       -10.8669222034       -1.4584922284       -3.2251748677
 C        -9.5579467099       -1.9137245544       -2.6816313413
 O        -8.6802228436       -1.1438584794       -2.4087109431
 C        -9.3599346852       -3.4719782125       -2.2195432402
 C        -8.7264935464       -3.1771431118       -0.7042125590
 O        -9.3255090414       -2.5089140693        0.1153150058
 C        -7.2537388300       -3.5068392175       -0.5759664431
 C        -6.7321980643       -3.3195476876        0.8614023872
 C        -6.7673901693       -1.9301880331        1.2770875485
 O        -6.6172223947       -1.0071656828        0.4995609506
 C        -6.9456372292       -1.5866718208        2.8923247435
 C        -8.5360305725       -1.1625787710        3.1505891108
 O        -9.0179087236       -0.2848760661        2.4377877866
 C        -9.2762968013       -1.8428526215        4.2982545123
 C        -6.5331385580       -2.6913610653        3.8470332969
 C        -6.0362358877       -0.3244968959        3.1359023570
 C       -10.6938408620       -4.1858050018       -1.9260618579
 C        -8.3741495534       -4.2222540571       -3.1718987659
 C       -11.9087298259        2.7910729299       -0.9369749300
 C       -11.0477403645        3.1560796058       -3.3269191237
 C        -6.1763579546        8.0372151321       -0.5822870297
 C        -5.5156747548        5.9815086124        0.6640749960
 C       -11.9564333072       11.3955249471        3.3056953284
 C       -11.8529040811        9.2112312865        4.5695253849
 C       -11.5799638030        8.5204954142       -3.4914857763
 C       -14.1789367408        8.6119954640       -3.8288769826
 H       -14.1730765909        5.3456275311       -1.3635544713
 H       -15.0826802291        6.2407146783       -2.6764487865
 H       -14.6993042927        6.9919654191       -1.0316532854
 H       -11.2573357664        9.1736456305       -0.7501169469
 H       -12.0854871593        7.7851457643       -0.1271546830
 H       -13.5283528593       10.2532272970        0.8448610448
 H       -11.9095475975       10.6615746071        0.6469875488
 H        -9.9963700847        7.8023157179        2.4770140456
 H        -8.7431227551        8.4261959640        3.6578730320
 H        -7.4023071782        9.2604601041        2.0003696859
 H        -8.5463679534        8.9136430807        0.6949151888
 H        -8.4496460102        4.7282764787        0.6498978693
 H        -7.3248285963        4.0170169764       -0.6594933349
 H        -8.8893572665        4.3906757004       -2.4901633640
 H       -10.2005742624        4.8606733581       -1.4367172912
 H        -9.8764980379        0.2864236531       -4.0253908034
 H       -11.6484238737        0.3760097154       -4.1799822588
 H       -11.0957538469       -2.0332797780       -4.0718906809
 H       -11.5794774574       -1.7881062671       -2.4674587249
 H        -6.7469292704       -2.8672170058       -1.3044812763
 H        -7.0936734395       -4.5161341799       -0.8760868797
 H        -5.7264540007       -3.7073223193        0.9078972054
 H        -7.2038659143       -4.0052395719        1.4829887754
 H       -10.3698663864       -1.6462480768        4.1757666572
 H        -8.9448870289       -1.3255361828        5.2097833619
 H        -9.0597651726       -2.8671015530        4.4141825332
 H        -7.1558676491       -3.6216695869        3.7490706347
 H        -6.6651434466       -2.3702511601        4.8871870680
 H        -5.5237858865       -2.9873956714        3.7240957642
 H        -6.4201041219        0.5126350495        2.5157553573
 H        -5.0312313794       -0.4733102108        2.9519605022
 H        -6.0960457923       -0.0712770082        4.1835423998
 H       -10.9973164064       -4.4831560979       -2.8931305358
 H       -11.3227168913       -3.3970924425       -1.5941639247
 H       -10.5881770803       -5.0363061692       -1.3467783784
 H        -8.0692178940       -5.2501125149       -2.9227083044
 H        -7.4323507949       -3.6977247602       -3.4269316774
 H        -8.9415869278       -4.3552255804       -4.1140550338
 H       -12.9101223092        2.5480340113       -1.3259063815
 H       -11.8760938245        3.8525535593       -0.8172434609
 H       -11.7430573675        2.2410244922        0.0131507737
 H       -12.1084616700        3.0098016298       -3.5860997951
 H       -10.3875917330        2.7933676020       -4.0963713238
 H       -10.8870712225        4.2482683304       -3.1087141089
 H        -5.4810423354        8.7321914271       -0.1355902958
 H        -7.0343296458        8.5642627445       -0.9027382743
 H        -5.7130442449        7.6198721453       -1.4099881254
 H        -4.9666479533        5.5066134045       -0.1229791944
 H        -5.9214185462        5.1766377438        1.1782368148
 H        -4.8443281659        6.4404480416        1.3045682010
 H       -11.7374638447       11.7649466595        4.2850177189
 H       -13.0370496471       11.3556291408        3.2235290983
 H       -11.5831777243       11.9922800707        2.4654574072
 H       -12.9242980396        9.2405182169        4.6291589890
 H       -11.4089718573        9.7403131019        5.4227287979
 H       -11.4503545185        8.2275853423        4.5946332749
 H       -10.8489029465        8.0497219351       -2.7844569471
 H       -11.4466920549        9.5343104394       -3.7537402391
 H       -11.4593745797        7.9915301920       -4.4902153924
 H       -14.1499171195        7.8903217494       -4.7465014433
 H       -14.3090187446        9.6572127255       -4.1058961575
 H       -15.0967880585        8.3730245295       -3.2979684156
 Na       -8.9743439606       -0.1870080608       -0.1721999283
