117

 C       -14.2404029911        6.2205916661       -1.8624166054
 C       -13.0131888943        6.7603332105       -2.6053552607
 O       -12.0457788747        6.0313888173       -2.6653140526
 C       -12.9972494809        8.3000060658       -2.9231397692
 C       -13.2884463632        9.0817743925       -1.5584849353
 O       -14.3087762212        9.7889147631       -1.5038112736
 C       -12.3602912591        8.7973400777       -0.3246824567
 C       -12.3195893699        9.8903561156        0.7611265277
 C       -12.3383803240        9.1175952239        2.1780974576
 O       -12.8240271447        8.0010206045        2.3081411108
 C       -11.6297617252        9.7796046065        3.3461437864
 C       -10.0476206797        9.9169641715        2.9463224063
 O        -9.4688553279       10.8946067312        2.6233851709
 C        -9.2901821080        8.5038603355        2.8066153431
 C        -8.1201676722        8.5218834515        1.7839989079
 C        -7.4549535263        7.1332091456        1.6133639877
 O        -7.6954506425        6.2485838492        2.4130806966
 C        -6.6442039020        6.8163226170        0.2806636848
 C        -7.6935980929        6.1974028652       -0.7028698401
 O        -8.1954767921        6.7582455634       -1.6355505420
 C        -8.2440114397        4.7583371868       -0.3699471676
 C        -9.2360188239        4.2429703032       -1.4405156784
 C        -9.6410264575        2.7776344732       -1.3708845758
 O        -8.9176500043        1.9123919205       -0.8044774218
 C       -11.0359198635        2.4258847927       -1.9927292361
 C       -10.9608490169        0.8471266081       -1.9753204268
 O       -11.1236847120        0.1945375718       -1.0000955968
 C       -10.9142316983        0.1969329686       -3.4230170517
 C       -10.7293895258       -1.2998410180       -3.4419873681
 C        -9.3830411668       -1.7277647420       -2.7944671557
 O        -8.4783593670       -0.9488932210       -2.6968800948
 C        -9.1300291291       -3.2655409230       -2.3245087602
 C        -8.5996372512       -3.2472503450       -0.8529005782
 O        -9.3025055278       -2.9747734103        0.0991035083
 C        -7.1623948067       -3.5966972397       -0.4679028121
 C        -6.8440638188       -3.3683823067        1.0011692980
 C        -6.7854162731       -1.8809361221        1.2779280609
 O        -6.9527890070       -1.0058236945        0.4469202429
 C        -6.8396128619       -1.4254562401        2.8585907127
 C        -8.3887836405       -1.1378664675        3.0632013071
 O        -8.9473166697       -0.3373272530        2.3273642779
 C        -9.1933091078       -1.7311936169        4.2041084848
 C        -6.2271230898       -2.5531115557        3.7357182492
 C        -6.0836148244       -0.1304293461        3.0810771967
 C       -10.5325273354       -4.0194058529       -2.2549336942
 C        -8.3233270453       -3.8372475672       -3.5299869702
 C       -12.1988821756        3.0217483042       -1.0406230516
 C       -11.2179805446        3.0338799981       -3.4520392774
 C        -6.0428137012        8.0889549985       -0.3285651940
 C        -5.6133506719        5.8005189006        0.6195978866
 C       -12.1924789312       11.1899670126        3.7165533668
 C       -11.6762336286        8.9173517276        4.6207871160
 C       -11.6119183268        8.6841547056       -3.4873256739
 C       -14.1010880465        8.5401381961       -3.9446357604
 H       -14.3668324023        5.1345157867       -2.0427513725
 H       -15.0938382546        6.7382867455       -2.1469012187
 H       -14.0506038795        6.4837896793       -0.7815775716
 H       -11.3499852318        8.7470128741       -0.8057317385
 H       -12.5546985999        7.7907093403        0.1604177372
 H       -13.1404908096       10.5627402639        0.5052039434
 H       -11.4822690717       10.5739755801        0.7334825639
 H        -9.9997286460        7.7238344117        2.4620586747
 H        -8.8880208839        8.2160535336        3.8441281644
 H        -7.3456891294        9.2443559232        2.1147256741
 H        -8.6111523695        8.6879718357        0.7902263337
 H        -8.8073476360        4.8188324941        0.5251488179
 H        -7.3783649440        4.0888805297       -0.3358233654
 H        -8.9457900082        4.4631937372       -2.4316934278
 H       -10.1942169763        4.9102661378       -1.3879760260
 H       -10.1786868901        0.7249308005       -4.0316320014
 H       -11.8716347968        0.3774501137       -3.9321027325
 H       -10.6488778074       -1.6327974061       -4.5282995879
 H       -11.5880068924       -1.7707699229       -3.1101776160
 H        -6.4231009725       -2.9058681580       -0.9887977844
 H        -6.9837230884       -4.6292255702       -0.8203025934
 H        -5.8618933785       -3.9165979833        1.2826421111
 H        -7.6174229873       -3.8488153318        1.6191458783
 H        -9.9352038223       -1.0127365097        4.6857981201
 H        -8.5134459367       -2.0580646414        4.9321040766
 H        -9.7074094049       -2.6490052416        3.8967355354
 H        -6.6329705080       -3.5949928925        3.7069015787
 H        -6.0374663794       -2.2396487321        4.7569957287
 H        -5.2186721460       -2.7102230008        3.3859867138
 H        -6.3784341660        0.6652388941        2.2788986466
 H        -5.0043279202       -0.3302920983        2.9441852865
 H        -6.2686867069        0.2750034192        4.0632836972
 H       -11.2839878034       -3.6486178622       -3.0138583537
 H       -10.8406341501       -3.8784861830       -1.2044750367
 H       -10.2073691379       -5.0703098497       -2.4068502367
 H        -8.2205447796       -4.9427303959       -3.4493310173
 H        -7.3686693330       -3.4193997123       -3.6540065698
 H        -8.7927317137       -3.7437039188       -4.4953457690
 H       -13.0859114746        2.4239823787       -1.1291810056
 H       -12.5117129917        4.0420542366       -1.3419127169
 H       -11.8331130710        3.0371025164        0.0056513698
 H       -12.0903097991        2.5670036197       -3.8843458853
 H       -10.3893564545        2.7512349670       -4.0498626187
 H       -11.2900218033        4.0952128546       -3.3722704314
 H        -5.3984133591        8.6019949175        0.4533913047
 H        -6.8776650767        8.8123458211       -0.5109488152
 H        -5.3559350765        7.9277733532       -1.1482797664
 H        -5.1630882452        5.1398895491       -0.2411107981
 H        -5.9390069704        5.0999384891        1.3709047764
 H        -4.6713576195        6.2901455447        0.9363267060
 H       -11.5488215288       11.6363944833        4.5200034077
 H       -13.2159396179       11.0724933768        4.0532434094
 H       -12.2242741109       11.7956460684        2.8427618811
 H       -12.6243272203        8.9288499138        5.1281944685
 H       -10.8721364969        9.2733755036        5.2896700944
 H       -11.2734113214        7.9184757207        4.3436384340
 H       -10.7937415543        8.3624035266       -2.8848657583
 H       -11.6477876283        9.7232564746       -3.6133333528
 H       -11.4479623515        8.2442695833       -4.4818934417
 H       -13.9912991152        8.0014289618       -4.9140366003
 H       -14.1165110526        9.5414039548       -4.2287488512
 H       -15.0569049614        8.3981217249       -3.4339677752
 Na       -9.1086428372       -0.3115474733        0.0968492504
