117

 C       -14.2928590428        6.0231071280       -2.0027137680
 C       -12.9835325683        6.7174435627       -2.4483918101
 O       -11.9578277598        6.1001416431       -2.4774713780
 C       -12.9867411383        8.2370102255       -2.8390178887
 C       -13.2352944851        9.0599569943       -1.4562261992
 O       -14.2764820564        9.7264031370       -1.2903051788
 C       -12.3351471999        8.7579239765       -0.2856457347
 C       -12.4891054359        9.8204757696        0.8717534663
 C       -12.4984807146        9.0643121805        2.2394301204
 O       -13.1784884217        8.0528171268        2.3870344048
 C       -11.5211095867        9.6358313534        3.3544292001
 C       -10.1475533282        9.6620081102        2.7666112004
 O        -9.6209211236       10.6575723393        2.3997186240
 C        -9.2768798353        8.3900125280        2.8724345606
 C        -8.2017385799        8.4138899291        1.7556799662
 C        -7.5242830448        7.0585467316        1.6851025253
 O        -7.7226732033        6.1363784448        2.4398230288
 C        -6.5809582403        6.7869604789        0.4341130214
 C        -7.6188445190        6.2241941588       -0.6556767018
 O        -8.0736329033        6.8727327990       -1.5520842873
 C        -8.1273393859        4.7552113786       -0.4491729219
 C        -9.2354489581        4.4007022767       -1.4483423833
 C        -9.7597137080        3.0294676316       -1.2149884625
 O        -9.2155967917        2.2729501146       -0.4072212576
 C       -11.0061616793        2.4777238167       -1.9710538799
 C       -10.9981162278        0.9109190204       -2.1968637361
 O       -11.1759861566        0.2325312279       -1.2063139694
 C       -10.9568278127        0.2516250844       -3.5455572332
 C       -10.7567055571       -1.2521510577       -3.3510860305
 C        -9.3661886538       -1.7331891430       -2.7511859419
 O        -8.6540226691       -0.8316509576       -2.3615623059
 C        -8.9896617549       -3.2287973891       -2.3712760726
 C        -8.5570932355       -3.1859343319       -0.8396854130
 O        -9.3395032421       -2.8280146824       -0.0185340028
 C        -7.0448387417       -3.6210449403       -0.5934652148
 C        -6.6398682960       -3.3910859386        0.8375072139
 C        -6.8738484147       -1.9199489441        1.1621455087
 O        -6.9550868446       -1.0412301072        0.2874465629
 C        -6.9474282985       -1.4893386313        2.5908551531
 C        -8.4096284357       -1.1470475827        3.0445732925
 O        -9.2034773666       -0.4812959117        2.3993916664
 C        -8.8457281627       -1.6320765543        4.4166220629
 C        -6.2010183822       -2.3605582347        3.5593865559
 C        -6.1862444386       -0.0450711676        2.6250858670
 C       -10.1658264080       -4.1994452258       -2.7150200296
 C        -7.8486127235       -3.6129578965       -3.3263265778
 C       -12.2431577788        2.7256073470       -1.0663681515
 C       -11.3044017143        3.1033535682       -3.3369462661
 C        -6.0082323563        8.1116149887       -0.0649470894
 C        -5.5775982029        5.7038644891        0.7977349771
 C       -12.0767469639       11.0624821406        3.7065695648
 C       -11.6649366521        8.6143974563        4.5030575547
 C       -11.6387437044        8.7327366985       -3.3547686359
 C       -14.0477543982        8.6854546982       -3.8848995171
 H       -14.7982930161        5.5582207415       -2.8880472139
 H       -14.9808598207        6.6661280993       -1.5385599043
 H       -13.9672498345        5.3583943630       -1.2017066778
 H       -11.2330286205        8.7613861808       -0.4523864890
 H       -12.5704273493        7.7648474850        0.0049559569
 H       -13.3945715320       10.4414882196        0.8650535769
 H       -11.6615851919       10.5491489194        0.7502525725
 H        -9.8722291728        7.5149914848        2.7731435071
 H        -8.8934347939        8.3413589688        3.8524808910
 H        -7.4765988701        9.2443972335        2.0088377946
 H        -8.6626079919        8.4906837595        0.8069826584
 H        -8.6188167490        4.7157802051        0.5315972296
 H        -7.3120743382        4.0348158371       -0.5183675201
 H        -8.9656959921        4.6818329477       -2.4611563464
 H       -10.1194327922        5.0741040041       -1.3140235621
 H       -10.2008365384        0.6698634360       -4.2062665390
 H       -11.9335064523        0.4907328107       -4.0148525289
 H       -11.0464389084       -1.7971160411       -4.3854097076
 H       -11.5327176864       -1.6019077806       -2.6746246830
 H        -6.3404934125       -3.1291698782       -1.2246569105
 H        -6.9756083996       -4.6771955686       -0.8095569152
 H        -5.5808681167       -3.6834329058        0.8458967700
 H        -7.2221862743       -4.0921955962        1.4366639104
 H        -9.3761250146       -0.7383071221        4.8130259934
 H        -8.1744865970       -2.0535674945        5.0704618260
 H        -9.6931621362       -2.3497365825        4.2500833228
 H        -6.7281242366       -3.2998523246        3.6428320740
 H        -6.1181158574       -1.9540675110        4.5455096787
 H        -5.1878525050       -2.7077558563        3.3295342085
 H        -6.6723084540        0.6712758901        1.9569665496
 H        -5.1491384684       -0.1403742041        2.3186678778
 H        -6.2707971811        0.3693450284        3.5358343747
 H        -9.9985928841       -4.5538485321       -3.7294855960
 H       -11.0475464996       -3.6513566744       -2.6893292534
 H       -10.2813666240       -4.9947685915       -1.9800132579
 H        -7.3504038764       -4.6285480223       -3.2358355898
 H        -7.1350992886       -2.8677305706       -3.4324118694
 H        -8.2161675140       -3.6496131455       -4.3660499750
 H       -13.0797667203        3.0457140589       -1.6446606453
 H       -12.0872698929        3.4994015964       -0.2665148483
 H       -12.4520779356        1.8249665227       -0.5074720155
 H       -12.1188443804        2.4917105543       -3.8140253652
 H       -10.4175951558        3.1224877328       -4.0362862124
 H       -11.7068587605        4.0798012189       -3.1704654867
 H        -5.4812656153        8.6645200863        0.6888296930
 H        -6.8297186140        8.7078819744       -0.4510637990
 H        -5.3716944947        7.9902142097       -0.9254995621
 H        -4.7530707418        5.7345167107       -0.0137630479
 H        -5.8995830986        4.7204874084        0.9544933590
 H        -5.0026454026        5.9952844945        1.6824498393
 H       -11.2992999585       11.4910641545        4.4211361410
 H       -13.0890737713       11.1499082671        4.0990853960
 H       -11.9322604495       11.6531376662        2.8448026223
 H       -12.7265559154        8.5972896111        4.7197409285
 H       -11.1343251933        8.7564251288        5.4166382247
 H       -11.3921114872        7.6335076475        4.0260517578
 H       -10.8796790325        8.5433332343       -2.5702034574
 H       -11.6002309380        9.8458738189       -3.4771470499
 H       -11.2925101520        8.1426064362       -4.2435075993
 H       -13.9108122650        8.2504730059       -4.8412099686
 H       -14.0043938755        9.7010914027       -4.1182033244
 H       -15.0728009873        8.4531482422       -3.4693072498
 Na       -9.0762247676       -0.0932907345       -0.1303691138
