117

 C       -14.4634675541        6.2930468147       -1.8920692206
 C       -13.1063178463        6.7638388136       -2.4548515182
 O       -12.1856114222        6.0322425260       -2.6371739247
 C       -12.9813939374        8.2771452938       -2.8356811918
 C       -13.0703128395        9.2313413222       -1.6165547996
 O       -13.9575913310       10.0454933945       -1.5199623374
 C       -12.1408053832        8.9250350067       -0.4577599333
 C       -12.5404420190        9.7860932067        0.7664589383
 C       -12.1547414360        9.0828796837        2.0799737533
 O       -12.2408490064        7.8381029441        2.2128774189
 C       -11.5598768661        9.9334443436        3.1675457884
 C        -9.9570697173        9.9553264146        2.8798365216
 O        -9.3297391531       10.9683661678        2.8131621166
 C        -9.2506690792        8.5957216043        2.7434879282
 C        -8.1941313498        8.6472054335        1.6450116202
 C        -7.5619758087        7.2246577468        1.4834280004
 O        -7.6734838072        6.3612270160        2.3041934051
 C        -6.7424282720        6.8634665873        0.2136159157
 C        -7.7489349550        6.1767552451       -0.7089207461
 O        -8.2735127945        6.8116964908       -1.5785993695
 C        -8.0913510354        4.6924404103       -0.4591361693
 C        -9.1419169377        4.2733445305       -1.5140997219
 C        -9.4637088625        2.7808462366       -1.4328398482
 O        -8.6889107236        1.9739728633       -0.8644872503
 C       -10.9161689852        2.3481502160       -2.0516942016
 C       -11.0774037676        0.7529423867       -2.1533834794
 O       -11.2260755239        0.1175573539       -1.1642266368
 C       -10.9348229308        0.0997170711       -3.5336650450
 C       -10.9362978947       -1.4408029289       -3.3415476795
 C        -9.6049122660       -1.9744411820       -2.6278551383
 O        -8.7006496833       -1.1636508730       -2.4051037124
 C        -9.4294943846       -3.4498152223       -2.0933423101
 C        -8.6840981736       -3.1859352398       -0.6601007194
 O        -9.3475350531       -2.5789753541        0.1401881753
 C        -7.1815900802       -3.5337085206       -0.5018303351
 C        -6.6936264109       -3.3598587034        0.9323896532
 C        -6.8513767467       -1.9155020642        1.3305429058
 O        -6.6898683131       -0.9831879233        0.5540056498
 C        -7.0522748253       -1.6048856052        2.8669468654
 C        -8.4992184885       -1.1363553833        3.0973536282
 O        -9.0703904021       -0.3976155971        2.3074433582
 C        -9.2925869985       -1.7450275009        4.2379665115
 C        -6.5534146270       -2.7349152899        3.7100834260
 C        -6.1048275280       -0.4144249016        3.1440247372
 C       -10.7092516949       -4.3262732288       -1.8320494546
 C        -8.4864336097       -4.2562125746       -2.9254096868
 C       -11.9395755824        2.7342324760       -0.9697923496
 C       -11.1781567444        3.0744401914       -3.3922845444
 C        -6.1994299812        8.1844413930       -0.5050928510
 C        -5.5669594650        6.0068781824        0.6836111139
 C       -12.0597711685       11.4100605526        3.1257097663
 C       -11.8339781715        9.2576274479        4.5426848242
 C       -11.6402769566        8.5560144670       -3.4760312735
 C       -14.1734150743        8.6531130038       -3.8141506843
 H       -14.2189309601        5.4772278533       -1.1543932674
 H       -15.0349697428        5.9640947560       -2.7336927446
 H       -15.0005040190        7.0370061033       -1.2553297734
 H       -11.0600555684        8.9498649301       -0.6939871243
 H       -12.3505509115        7.8584835025       -0.1978849404
 H       -13.6322437787        9.8294332993        0.8850825605
 H       -12.2910334529       10.8361007355        0.6167065857
 H        -9.9781263728        7.8286698092        2.4786780340
 H        -8.6907568103        8.4549920934        3.7145413233
 H        -7.3520105970        9.3450497838        1.8200723517
 H        -8.6987715661        8.9224692286        0.7252873847
 H        -8.4515369238        4.6993101595        0.5673003429
 H        -7.2168735146        3.9861598504       -0.5861631156
 H        -8.8823169393        4.5571925508       -2.5076262840
 H       -10.1236135662        4.8340531718       -1.2348106411
 H       -10.0284466935        0.3816549552       -4.0625238768
 H       -11.7969220317        0.4161638578       -4.1415103680
 H       -11.0344435174       -1.9083718919       -4.3485292758
 H       -11.6740092239       -1.7991299367       -2.7591630869
 H        -6.5915616274       -2.8546722632       -1.1635715702
 H        -6.9755240858       -4.5538481631       -0.8464335566
 H        -5.6280345717       -3.6681524796        0.8848805026
 H        -7.0107944881       -4.1524941921        1.5582294749
 H       -10.3808892058       -1.6891624003        4.0158590344
 H        -9.1148628683       -1.1398674055        5.0693035976
 H        -8.9766688647       -2.7663577994        4.5217093424
 H        -7.1340720442       -3.6481616955        3.5088541913
 H        -6.6272062309       -2.5874324888        4.7704318899
 H        -5.5222482417       -2.9255081974        3.4152447116
 H        -6.2973552624        0.4350671018        2.4495051489
 H        -5.0071089528       -0.7453085122        3.0694453520
 H        -6.1929236380       -0.1343603519        4.1478645886
 H       -11.1819216871       -4.3904847304       -2.8169271591
 H       -11.2947404476       -3.8350659241       -1.1315530541
 H       -10.3438264974       -5.3382497907       -1.6366166465
 H        -8.1899706854       -5.2461241432       -2.4347098629
 H        -7.5767744442       -3.8344725079       -3.2218457510
 H        -9.0472224606       -4.5788665076       -3.8267941925
 H       -12.9437629985        2.7344917972       -1.3505393805
 H       -11.6934191462        3.7377888135       -0.5176781155
 H       -11.8560058296        1.9334668672       -0.2273064147
 H       -12.1863549058        2.7792974164       -3.7320747964
 H       -10.3774829527        2.8852857366       -4.1212196779
 H       -11.2242213704        4.0971847222       -3.1418492018
 H        -5.6212127026        8.8120147790        0.1303823714
 H        -7.0805465251        8.7380510291       -0.7835190737
 H        -5.6484183797        7.9624225850       -1.3834431323
 H        -4.9691102533        5.6938676839       -0.1794088321
 H        -5.8267654660        5.1180128165        1.1277282432
 H        -4.9707929935        6.5099811234        1.3992682142
 H       -11.7159805757       11.7836984821        4.1257389082
 H       -13.1375391085       11.3904970311        3.1958879769
 H       -11.7498733867       11.9864597291        2.3151577172
 H       -12.8679415031        9.2619024531        4.7523590868
 H       -11.3184178416        9.9185621705        5.1841092818
 H       -11.3735081908        8.2672418997        4.7070677975
 H       -10.8774870554        8.2288793606       -2.8212337450
 H       -11.5908699759        9.5674169697       -3.8579974925
 H       -11.5664998597        7.9498913113       -4.3836264424
 H       -14.1028021673        8.0103006428       -4.6726062463
 H       -14.0996609596        9.7104663794       -4.0629339889
 H       -15.2602615167        8.5431217583       -3.3981527713
 Na       -8.8246828192       -0.0952504531       -0.1055436744
