117

 C       -14.5589807153        6.3521168303       -1.9347419183
 C       -13.2173512764        6.7753936366       -2.5111270545
 O       -12.2358630070        6.0082882076       -2.3760355752
 C       -13.0157871974        8.2482562081       -3.0126913521
 C       -13.1063293893        9.2075544004       -1.7201408149
 O       -13.8817053178       10.1573397564       -1.6648362010
 C       -12.1649582077        8.9734644276       -0.4697519322
 C       -12.5915716485        9.7127293692        0.7806065987
 C       -12.0267523364        9.0650428123        2.0132571870
 O       -11.9730209973        7.8832413483        2.1640300976
 C       -11.4795496841       10.0726820495        3.1899859690
 C        -9.8602042390       10.0461581564        2.8935407381
 O        -9.2363644010       11.0575184946        2.8127261428
 C        -9.1881414113        8.6755041802        2.9195547059
 C        -8.3677763016        8.5777847784        1.6452809115
 C        -7.6005312864        7.1997611461        1.5385147103
 O        -7.7316615023        6.2736016760        2.3297559556
 C        -6.6412435708        7.0125968335        0.2101035435
 C        -7.6808898327        6.2999075973       -0.7877991066
 O        -8.3685753225        6.9176196046       -1.5803606557
 C        -7.9637494045        4.7390591658       -0.6808445847
 C        -9.0934785262        4.2824428850       -1.6261129764
 C        -9.5325967727        2.7762502991       -1.4426081070
 O        -8.7998450482        2.0299131553       -0.8691398129
 C       -10.8813625979        2.2486401460       -1.9966711408
 C       -10.9210618923        0.6622142175       -2.0581197227
 O       -10.7906290420       -0.0427057243       -1.0207119511
 C       -11.0159499824       -0.0894790837       -3.4645685099
 C       -10.8481311891       -1.6119471269       -3.4699630837
 C        -9.6238884091       -1.9930563204       -2.6272416525
 O        -8.7670124182       -1.2136182507       -2.3979554313
 C        -9.4977034595       -3.4692868063       -1.9208325528
 C        -8.7276614752       -3.2798893171       -0.5554044188
 O        -9.2343079671       -2.8290417870        0.4752350256
 C        -7.2110764626       -3.6572442849       -0.5603801603
 C        -6.6521299981       -3.3693634496        0.8801318126
 C        -6.8947670463       -1.9296147672        1.3300043665
 O        -6.7990813106       -1.0508311459        0.4761370133
 C        -7.0574054662       -1.6421364458        2.8244072915
 C        -8.4977649932       -1.2321161301        2.9785994962
 O        -9.1053246632       -0.5988187515        2.1373309717
 C        -9.3464156629       -1.4935944362        4.2407528810
 C        -6.7086056632       -2.7609501059        3.7783367476
 C        -6.3074060098       -0.3571960993        3.3346573290
 C       -10.8758566935       -4.1188821162       -1.5621995913
 C        -8.7128553043       -4.1762159165       -3.0509785656
 C       -11.9762495158        2.7212400652       -1.0105097672
 C       -11.2702654406        2.8899207324       -3.4062945792
 C        -6.1497534635        8.2983448298       -0.3682695203
 C        -5.4306578784        6.1101969723        0.4908011317
 C       -12.0772502314       11.4771568746        3.1353565080
 C       -11.7220539857        9.4457458350        4.5888437481
 C       -11.6780812893        8.4527460604       -3.6505618583
 C       -14.1610526229        8.6730487291       -3.9692731144
 H       -14.5377467043        6.0294679357       -0.9473474411
 H       -15.0704355599        5.7288800663       -2.6724822004
 H       -15.0955897164        7.2661706980       -1.8129994532
 H       -11.1110227655        9.1593204746       -0.7964808803
 H       -12.1845107256        7.8995227095       -0.1950043893
 H       -13.6868967966        9.7238195170        0.8981722975
 H       -12.3110688275       10.7638107986        0.6703787927
 H        -9.9910852449        7.9251493893        2.8915292591
 H        -8.4952712127        8.6233388734        3.7245839044
 H        -7.6191233470        9.3938177414        1.5270148200
 H        -9.0590298988        8.6623958734        0.7288047724
 H        -8.1625513338        4.4511294097        0.3840546549
 H        -7.0480822561        4.2857006947       -0.9457639980
 H        -8.7433427723        4.2365676268       -2.7043144308
 H        -9.8660516491        4.9643921690       -1.5175522798
 H       -10.1706328216        0.3550215149       -4.0244294439
 H       -11.9612970178        0.0751822395       -3.9772550608
 H       -10.7706406241       -2.0081455150       -4.4848980317
 H       -11.7534093564       -2.1539516378       -2.9123512961
 H        -6.6693288338       -2.9977258680       -1.2516364807
 H        -7.0144945134       -4.6943518532       -0.8984547825
 H        -5.6686153569       -3.8338908951        0.9959135786
 H        -7.1696120674       -4.1325299022        1.5395883614
 H       -10.4069179499       -1.4203870440        4.0248025591
 H        -9.0702292099       -0.7865620498        5.0906460562
 H        -9.1541533944       -2.4740344979        4.5835809592
 H        -7.5450626085       -3.4690760083        3.8491266049
 H        -6.6397801788       -2.3756690934        4.8165293357
 H        -5.7794092470       -3.2472594043        3.4841959107
 H        -6.4977265053        0.4620111124        2.6304329397
 H        -5.2901302178       -0.5395435962        3.4061818398
 H        -6.6203644109       -0.0861995815        4.4039890373
 H       -11.6434965237       -3.8989075723       -2.3163766305
 H       -11.0766223739       -3.7037945513       -0.5102000112
 H       -10.6359759720       -5.1762085348       -1.6037924179
 H        -8.3480940932       -5.1108558078       -2.8049414415
 H        -7.7404677047       -3.6352334140       -3.2070048734
 H        -9.2690082732       -4.1899423873       -3.9743917012
 H       -12.9804279500        2.6159926212       -1.4945800705
 H       -11.7211905223        3.7287041003       -0.8422521371
 H       -12.0088403276        2.1254038571       -0.0884178313
 H       -12.1162622945        2.4123423149       -3.8242318331
 H       -10.3907510821        2.8281478387       -3.9749427694
 H       -11.5367216959        3.9654916387       -3.2495265349
 H        -5.6707876523        8.8121201189        0.5248601038
 H        -6.8798441035        8.9885195317       -0.8432210450
 H        -5.3293014299        8.0820070553       -1.1044846836
 H        -4.9187698252        5.6691655656       -0.4089510405
 H        -5.6460830148        5.1859296694        1.1323997813
 H        -4.7325884203        6.6810161736        1.1893473779
 H       -11.6139771791       11.9569863883        3.9413330671
 H       -13.1645315265       11.6354476629        3.1454171837
 H       -11.5242734964       11.9109931076        2.2453449611
 H       -12.8010553669        9.4950940260        4.8815238151
 H       -11.0271962614        9.9747268841        5.3156719342
 H       -11.4743886747        8.3988904128        4.5493984568
 H       -10.9877317252        8.1461552558       -2.8505092984
 H       -11.5682960687        9.4574269999       -3.9514584444
 H       -11.5538056526        7.8453247101       -4.5431983273
 H       -14.1985468237        7.9971725966       -4.8378731042
 H       -14.0595927017        9.7055949533       -4.1889607194
 H       -15.0756272807        8.5822257342       -3.5613064223
 Na       -8.7537317534       -0.0729231917       -0.0551582851
