117

 C       -14.9392376446        6.4807673933       -2.1307288970
 C       -13.3651996800        6.7342710275       -2.3790481461
 O       -12.5871876692        5.8523185983       -2.1487397927
 C       -12.9852827758        8.1315336639       -2.9062311694
 C       -13.0365833260        9.2399175264       -1.7991601986
 O       -13.7068599173       10.2273987850       -1.8886916539
 C       -12.2995433574        8.8351871162       -0.5576901153
 C       -12.2398924036        9.9058750643        0.5138414400
 C       -11.6981126848        9.2886063286        1.7759262407
 O       -11.5732053294        8.0496041346        1.8046997984
 C       -11.2397140954       10.1097147063        3.0282465428
 C        -9.6512784348       10.1080579957        2.9054834425
 O        -9.0430616401       11.1725665626        2.6792896533
 C        -8.9102967424        8.7669442462        2.8835901202
 C        -8.5605620169        8.4818667829        1.4807057874
 C        -7.6911731442        7.1809804912        1.4167128263
 O        -7.7528755910        6.3489446626        2.2778958098
 C        -6.8439237084        6.8938323962        0.0596141580
 C        -7.9026999896        6.3786675375       -0.9469461382
 O        -8.6871328776        7.0831374105       -1.5552336855
 C        -7.9473200119        4.8338750995       -1.1397104013
 C        -9.2122497312        4.2872752002       -1.7221336918
 C        -9.5430626896        2.8198457273       -1.3990357934
 O        -8.7240343241        2.1185161775       -0.7971614978
 C       -10.9549659624        2.3859485023       -1.9842799849
 C       -10.7908284209        0.8317824989       -1.9604446717
 O       -10.7370533864        0.3057016022       -0.8888811124
 C       -10.4628081423        0.0903604305       -3.3516217005
 C       -10.7190334554       -1.4267364190       -3.2271176500
 C        -9.5988042253       -2.1235114452       -2.3499547024
 O        -8.5635744314       -1.5074481420       -2.1388656700
 C        -9.7301792920       -3.5078731346       -1.7078507245
 C        -8.7927848051       -3.4839374376       -0.3424619508
 O        -9.2453098778       -3.3563480632        0.7697834084
 C        -7.2948359075       -3.6662925452       -0.4707247034
 C        -6.5941263454       -3.5400040657        0.9114423132
 C        -6.7777142443       -2.0578047027        1.3540969873
 O        -6.7446000091       -1.1238046630        0.5749143777
 C        -7.2238083503       -1.6856275242        2.8326600204
 C        -8.7418110792       -1.2281873395        2.8293930866
 O        -9.3939045725       -0.8411227799        1.8935012619
 C        -9.4950552234       -1.2662335522        4.2000830625
 C        -6.9271761924       -2.8685811995        3.7764577579
 C        -6.4235463166       -0.4229909275        3.3228692417
 C       -11.1077220648       -3.9340981515       -1.1207576159
 C        -9.1036200253       -4.5982014732       -2.5847583070
 C       -11.9343383763        2.9777553075       -0.8773040536
 C       -11.2256813291        3.0103403038       -3.3593745672
 C        -6.2528693626        8.3046486005       -0.4431998689
 C        -5.6348855482        5.9670760360        0.4108402020
 C       -11.8034146727       11.6062202029        2.9259836836
 C       -11.6435373372        9.4398563650        4.3546850918
 C       -11.4731327618        8.0829298878       -3.3256012240
 C       -13.9693185861        8.5455789533       -4.0480131128
 H       -15.0277384109        5.5397640239       -1.5599683026
 H       -15.5058053850        6.5251867327       -2.9927535602
 H       -15.3147927277        7.2563488694       -1.4549810618
 H       -11.3464526096        8.4332250992       -0.8552589718
 H       -12.8492706897        7.9445326661       -0.1464706140
 H       -13.2876289477       10.2262809438        0.7050916018
 H       -11.5738464225       10.7026302306        0.1742472673
 H        -9.4080066032        7.9589152823        3.3395057567
 H        -8.0130142731        8.9722009962        3.5386743965
 H        -8.1282831944        9.2985851714        0.9320765891
 H        -9.4898058176        8.2942372568        0.8298951726
 H        -7.7545414617        4.4140789852       -0.1634837157
 H        -7.0539101520        4.4876769744       -1.6178391990
 H        -9.0868446630        4.2927773747       -2.7434501174
 H       -10.1040986497        4.8599610676       -1.3815865249
 H        -9.4146983572        0.2383176521       -3.7337610843
 H       -11.2054709531        0.4629622641       -4.0526865606
 H       -10.7566314388       -1.9077080675       -4.2911678111
 H       -11.5774698031       -1.6045443039       -2.6784703297
 H        -6.8769643199       -2.8135496950       -1.0741014192
 H        -7.0343585664       -4.5915233447       -0.9683546220
 H        -5.5253369671       -3.9052248544        0.8091287431
 H        -6.9512768087       -4.2523469312        1.6359121765
 H       -10.3186760438       -0.5202726554        4.3049724799
 H        -8.7897391852       -1.1070294628        4.9658604248
 H        -9.9757479256       -2.2734745001        4.3086282051
 H        -7.8303617009       -3.5298236283        3.7273095601
 H        -6.6720930877       -2.5134032189        4.7760351928
 H        -6.0504383080       -3.3632678208        3.4021851292
 H        -6.7345622885        0.4817410489        2.7866749777
 H        -5.3047450783       -0.6136974146        3.1938243721
 H        -6.6978311096       -0.2742034759        4.3160178797
 H       -11.8504905003       -3.6348067703       -1.9310176964
 H       -11.1896665317       -3.3900540570       -0.1940774681
 H       -11.1085308291       -5.0389510667       -0.8545474808
 H        -9.0359614426       -5.5524233749       -1.9951182323
 H        -8.2023644917       -4.3461084736       -3.0174469273
 H        -9.8312613863       -4.7542897853       -3.3820791292
 H       -12.9529841975        3.1241665431       -1.2147505879
 H       -11.5070399559        3.9790667892       -0.6115195015
 H       -11.8517497218        2.3048520007       -0.0186147186
 H       -12.0945590903        2.4702799826       -3.7698491441
 H       -10.4093894785        2.9558134709       -4.0756461557
 H       -11.5014965866        4.0095676796       -3.1859710818
 H        -5.7730553028        8.8950568034        0.3737847036
 H        -7.1455398057        8.8299351297       -0.8870980424
 H        -5.5761841240        8.2169267173       -1.2955789087
 H        -5.0601828307        5.6425509463       -0.5323224668
 H        -5.9366000292        5.0018443728        0.9217453072
 H        -4.8287372122        6.4822395795        1.0610358035
 H       -11.4832924361       12.0706951223        3.9069692978
 H       -12.8804138421       11.5553687095        2.9324779900
 H       -11.3792000548       12.2257854894        2.2001328629
 H       -12.7185515719        9.4138466687        4.3759498579
 H       -11.4077557410       10.0158831777        5.2411710359
 H       -11.3344340415        8.3616925982        4.3015709148
 H       -10.8169839412        7.7805202567       -2.5750393616
 H       -11.2360331857        9.1204161685       -3.5280905756
 H       -11.4370071152        7.3659431433       -4.1343906191
 H       -13.9598456407        7.8024774584       -4.7417261405
 H       -13.6074446675        9.3890907379       -4.5647968053
 H       -15.0022234842        8.6425890652       -3.6332049853
 Na       -8.5715713320        0.0701503771       -0.0849835741
