117

 C       -14.9786673508        6.4950296124       -2.1514338336
 C       -13.5514968581        6.6805065927       -2.4508000144
 O       -12.7025977776        5.8051753215       -2.1605336711
 C       -12.9580678560        8.0408869536       -2.9481242302
 C       -13.0381001476        9.1529969070       -1.8069265252
 O       -13.6625527555       10.1729173965       -1.9930304482
 C       -12.2941980890        8.7390269945       -0.5025160828
 C       -12.0004103231        9.8953205317        0.4627945251
 C       -11.5703878125        9.2958078934        1.7954987818
 O       -11.5497577770        8.1229679454        1.9719013861
 C       -11.1942822446       10.2252320540        3.0314926740
 C        -9.6050054040       10.2088771790        2.8633928858
 O        -9.0624790873       11.2510869714        2.7612658534
 C        -8.9240324913        8.8750173725        2.8005765377
 C        -8.4818917871        8.5278357149        1.3497806322
 C        -7.6032765005        7.2369387076        1.3572934871
 O        -7.6557829490        6.3336986415        2.1606228448
 C        -6.7314047802        7.0017609767        0.0544569049
 C        -7.7826888895        6.3340485525       -0.8858023609
 O        -8.7142604749        6.9805972545       -1.3181663547
 C        -7.9066776486        4.8256056470       -1.0073135784
 C        -9.1597337155        4.5058173773       -1.9182705586
 C        -9.5488583827        3.0886986149       -1.5851435206
 O        -8.7281138732        2.4171573970       -0.9940725812
 C       -10.9542911227        2.4308917643       -1.9768604757
 C       -10.7765955381        0.8185779271       -1.9189955218
 O       -10.9976712735        0.2245922580       -0.8268465209
 C       -10.3436081694        0.0163077039       -3.1689367417
 C       -10.5562620578       -1.4830192902       -2.9269107949
 C        -9.5396107122       -2.1047267182       -2.0276066211
 O        -8.4155734637       -1.6121987853       -1.9437321603
 C        -9.7977716272       -3.5502233696       -1.5390496130
 C        -8.8750852720       -3.6784002914       -0.1704096503
 O        -9.4168283752       -3.3885576507        0.8656730085
 C        -7.3940808428       -3.7917234372       -0.3900403258
 C        -6.5079782525       -3.4160789099        0.8863277863
 C        -6.7610172260       -1.9595939651        1.3294170488
 O        -6.7978976334       -0.9941553257        0.5841682920
 C        -7.1950824697       -1.7606805287        2.8505588319
 C        -8.6923076960       -1.2590010730        2.8378444504
 O        -9.2723717325       -0.7472463285        1.8935252038
 C        -9.5676802203       -1.4262516260        4.1000951349
 C        -7.0568929777       -2.9117779066        3.8169939017
 C        -6.3864451756       -0.4919646914        3.3294635656
 C       -11.2916728978       -3.8582595457       -1.1950695355
 C        -9.3124347551       -4.6130446194       -2.5434567753
 C       -12.0456748947        2.7121133075       -0.9031268804
 C       -11.4851573899        2.9943430371       -3.3404469114
 C        -6.2204544455        8.2824914690       -0.6873272582
 C        -5.5121097714        6.0425535542        0.3711587624
 C       -11.7436489309       11.6622636674        2.9393420662
 C       -11.6737676443        9.5055155739        4.3326781192
 C       -11.5294617864        7.8652215225       -3.4872774543
 C       -13.7920827400        8.5364351686       -4.1768765324
 H       -15.2131534114        5.4654631540       -1.9690716645
 H       -15.5652163851        6.9241221739       -3.0042268943
 H       -15.1724541583        7.1756944599       -1.3158754228
 H       -11.3272167251        8.3074124357       -0.7910550923
 H       -12.8501524728        7.9850143538        0.0125239315
 H       -12.8819097953       10.5191669512        0.5963858843
 H       -11.1289593188       10.4453682966        0.0599567343
 H        -9.6223176431        8.0868242720        3.2144650395
 H        -8.1793814622        8.9009545188        3.5667861114
 H        -7.8884532816        9.3022916343        0.8617250463
 H        -9.2461659785        8.3927955170        0.6395811257
 H        -7.8730552243        4.3394316532       -0.0155752474
 H        -6.8984612888        4.5403487814       -1.3987229822
 H        -8.7355091666        4.3710834069       -2.9927648454
 H        -9.9676346463        5.2145528816       -1.8454839075
 H        -9.2924657083        0.1452995207       -3.3710724036
 H       -10.9450935508        0.2829550814       -4.0545230061
 H       -10.4137777234       -2.0198627653       -3.7884080577
 H       -11.5715631299       -1.7395292417       -2.5033872093
 H        -7.1279548548       -3.1420444614       -1.1827927253
 H        -7.0954071371       -4.8013401717       -0.6968099444
 H        -5.5543667922       -3.6784856664        0.5218947955
 H        -6.6984178456       -4.0998893693        1.7299714471
 H       -10.4596196887       -0.7991544240        4.0426742015
 H        -9.0129564223       -1.0853812644        5.0079673870
 H        -9.8889508902       -2.4274336251        4.1769475524
 H        -7.6582996967       -3.7086895961        3.4338605920
 H        -7.3616971807       -2.4989101305        4.7744150215
 H        -6.0047743613       -3.1990471093        3.9145752754
 H        -6.3808651336        0.2982470018        2.5660392358
 H        -5.4353006661       -0.7935708849        3.5021398219
 H        -6.8911361006       -0.0800134991        4.2183282777
 H       -11.8167449015       -3.7202016532       -2.0829406216
 H       -11.6412733547       -3.3371306621       -0.2885027714
 H       -11.2720563455       -4.8820291613       -0.9665020636
 H        -9.1511344818       -5.5018818051       -1.9892265165
 H        -8.3626486473       -4.2523091751       -3.0849930315
 H       -10.0987694989       -4.8637883291       -3.2604007824
 H       -12.9680945859        2.8867560558       -1.4796215473
 H       -11.8461767320        3.6314064902       -0.4408656781
 H       -12.0955879705        1.9156868240       -0.1555155616
 H       -12.4299865896        2.6072829696       -3.6819919140
 H       -10.7370424914        2.6810316149       -4.0721131766
 H       -11.4539240149        4.1308357452       -3.3284424698
 H        -5.7641211611        9.0017989442        0.0180851349
 H        -7.0259774913        8.7422936125       -1.2449830825
 H        -5.4460313689        8.0053472726       -1.4297653906
 H        -5.0218026615        5.5919266672       -0.4698519712
 H        -5.9091149719        5.3092954997        0.9764698009
 H        -4.7363381129        6.4915883640        0.8905461427
 H       -11.5120902915       12.1663836652        3.8346413527
 H       -12.8412285455       11.6202243395        2.8255626060
 H       -11.2348114958       12.2343256252        2.0945800738
 H       -12.7431364773        9.6344489093        4.6026343138
 H       -11.1955135662       10.1425932759        5.1106900887
 H       -11.3926499457        8.4829209368        4.3650035294
 H       -10.9107580085        7.1808511094       -2.8219135458
 H       -11.0499137370        8.8203068787       -3.4745828403
 H       -11.6761032647        7.3095806896       -4.4090807559
 H       -13.6041066349        7.8087139350       -5.0633615951
 H       -13.2049245355        9.3438740097       -4.6154793061
 H       -14.8087226950        8.8066139306       -3.9847332685
 Na       -8.6515882647        0.0828635524       -0.2231420096
