117

 C       -15.0618765981        6.6986095877       -2.2839899312
 C       -13.5863592910        6.6557403872       -2.5012359834
 O       -12.8744386018        5.6609667412       -2.3089382822
 C       -12.9346977510        7.9447123380       -3.0469528057
 C       -12.8764080476        8.9503959422       -1.8567498572
 O       -13.4606495790       10.0181564979       -1.9222986107
 C       -12.1315789756        8.5648079519       -0.5843682810
 C       -11.9769477636        9.7385845653        0.4092902593
 C       -11.6590048515        9.1827766750        1.8463873781
 O       -11.9736812341        8.0723869530        2.1636614631
 C       -11.0903589522       10.2391072375        2.8582056539
 C        -9.4704975400       10.3120777824        2.8607613629
 O        -9.0380762205       11.3941399058        2.8446455060
 C        -8.7048577403        8.9847519874        2.8138861421
 C        -7.9721152168        8.8124851255        1.5207131230
 C        -7.3511007474        7.4155049295        1.3402186685
 O        -7.4175934654        6.5995105113        2.2231478053
 C        -6.7486712255        7.0740230312       -0.1008051952
 C        -7.9899708897        6.5036906206       -0.9444718398
 O        -8.7848799301        7.3019096315       -1.4495716579
 C        -7.9748865933        4.9351337536       -1.1292607498
 C        -9.2519225183        4.4285891909       -1.7732458454
 C        -9.5062657471        2.9131297873       -1.5520402853
 O        -8.6588752823        2.1854952705       -1.0749941291
 C       -11.0023561542        2.3457759959       -1.9268807834
 C       -10.8675052006        0.7684931643       -1.8507976170
 O       -11.2124658744        0.2020977019       -0.8534388325
 C       -10.4692217395        0.0339026830       -3.1361370009
 C       -10.5828280137       -1.5047347757       -2.9965745200
 C        -9.5516913700       -2.1275450283       -1.9937166198
 O        -8.5249502331       -1.4371294949       -1.7769454678
 C        -9.7883473748       -3.5520881843       -1.2586996719
 C        -8.8693374820       -3.7333688769       -0.0636152942
 O        -9.4345775973       -3.7440117671        1.0018611657
 C        -7.3506843371       -4.0023673128       -0.2372940602
 C        -6.5288217622       -3.5313956517        0.9892617965
 C        -6.8611793626       -2.0244738254        1.2886694402
 O        -6.7784307151       -1.0956595858        0.5351870189
 C        -7.2775123350       -1.6953909050        2.7514621020
 C        -8.8447513443       -1.2229099550        2.8252510830
 O        -9.1762517679       -0.2838496909        2.1004903258
 C        -9.7673907934       -1.6828604371        3.9028263087
 C        -7.1699596135       -2.9231636130        3.7984280087
 C        -6.5090307736       -0.4649325987        3.3055629579
 C       -11.3378495633       -3.8588212920       -0.9371248538
 C        -9.4855117017       -4.5639481448       -2.4362361417
 C       -11.8441369139        2.9662611960       -0.8388723117
 C       -11.4106666520        2.8641717705       -3.3988119808
 C        -6.2277280034        8.3545417908       -0.7681441450
 C        -5.6994748880        5.9720639521        0.1318444240
 C       -11.6113116253       11.6986886581        2.6176676656
 C       -11.4639053466        9.6958882365        4.3311624616
 C       -11.4281702000        7.6173147707       -3.6603542929
 C       -13.6837411155        8.5142871754       -4.2522291079
 H       -15.4735211561        5.7469062427       -2.1158935213
 H       -15.4908836938        7.0181277912       -3.2860069198
 H       -15.3140119049        7.4809112009       -1.6272460799
 H       -11.1033791721        8.2112492442       -0.7651627412
 H       -12.7355425972        7.7765012003       -0.1186228402
 H       -12.9302420645       10.2607876162        0.5358754063
 H       -11.2001681882       10.4697995551        0.0602596696
 H        -9.3558301782        8.1688647590        3.1398273600
 H        -7.9988138073        8.9063159546        3.6144647294
 H        -7.1958948639        9.6383172929        1.4214138126
 H        -8.5064912378        8.8769906144        0.6037743982
 H        -7.8374536439        4.5998099011       -0.1606799201
 H        -7.0248137204        4.7149112223       -1.6903565708
 H        -9.2314911066        4.6979674326       -2.8122242074
 H       -10.1359720355        4.8955096125       -1.3337757045
 H        -9.4483598903        0.3815530163       -3.3205737218
 H       -11.0539771185        0.3000459250       -4.0708064915
 H       -10.3871586350       -1.9964789196       -3.9086276977
 H       -11.6265455875       -1.7881842510       -2.6896763134
 H        -7.0033032932       -3.5443054907       -1.1644197387
 H        -7.2330049356       -5.1091622126       -0.3466802572
 H        -5.4698631725       -3.6773941353        0.8935466341
 H        -6.9489437200       -4.1125637525        1.8460303215
 H       -10.6998658804       -1.2020080542        3.7496999989
 H        -9.3473372279       -1.2198747952        4.8399040152
 H        -9.8640702948       -2.7736013506        3.9772439829
 H        -7.9222068363       -3.6481463675        3.6908219182
 H        -7.1078850889       -2.4323474478        4.7606889494
 H        -6.1970039481       -3.4157120493        3.5327457732
 H        -6.6734803950        0.4002892789        2.6823682319
 H        -5.4839179978       -0.6695686232        3.3077872485
 H        -6.9360561047       -0.2443144530        4.3590295621
 H       -11.8171707259       -4.1574621078       -1.8966961051
 H       -11.8559451145       -2.9438868674       -0.4374328148
 H       -11.3385017528       -4.7315406019       -0.2353427393
 H       -10.0031857982       -5.4534468770       -2.2411309402
 H        -8.3837474110       -4.6907540470       -2.4070264324
 H        -9.7883472922       -4.2402416836       -3.4060126299
 H       -12.5954018880        2.2606913945       -0.4429094965
 H       -12.4255494594        3.8017410932       -1.2314575750
 H       -11.1109240088        3.3063996278       -0.1137783879
 H       -12.2071587599        2.2254649609       -3.7263827931
 H       -10.6139731911        2.6986553905       -4.1353644829
 H       -11.7867612221        3.8812808712       -3.4463158873
 H        -5.4107300941        8.7498753672       -0.1888974974
 H        -6.9755940758        9.1296101615       -0.8781440853
 H        -5.7819023444        8.0653537523       -1.7524558746
 H        -5.2269446534        5.6348127888       -0.8478553890
 H        -6.1187626516        5.1348185111        0.7639112887
 H        -4.7951115999        6.4038844889        0.7095494226
 H       -11.1387772746       12.4198491148        3.2276850078
 H       -12.6870836551       11.7483903607        2.7584695779
 H       -11.4575793554       11.8990211157        1.5481847432
 H       -12.5555176556        9.8132670623        4.4332291027
 H       -10.9641406616       10.2634275611        5.1118740356
 H       -11.2200760887        8.6435416642        4.4445384736
 H       -10.6958546409        7.3305793815       -2.9096929091
 H       -11.1484941201        8.6084892970       -4.0396512077
 H       -11.4974032567        6.8979726593       -4.4257205567
 H       -13.7284660978        7.7002854473       -4.9958182129
 H       -13.1219169726        9.3035717324       -4.7536077644
 H       -14.5787526964        8.9139723456       -4.0171402278
 Na       -8.6351611910        0.0427368713       -0.0766580268
