117

 C       -15.0780752985        6.6870498435       -2.3276896272
 C       -13.5370040028        6.6589180221       -2.5922039926
 O       -12.9580919449        5.5711011592       -2.3750055807
 C       -12.8664064946        7.9771906018       -3.0919454630
 C       -12.7729917342        8.9933361675       -1.8731180394
 O       -13.4068082567        9.9967436202       -1.8944321758
 C       -11.9990952980        8.5063168737       -0.6086460885
 C       -11.9346364109        9.6235396631        0.4369605200
 C       -11.7504300169        9.1870197577        1.8671832510
 O       -12.0197192544        8.0636135277        2.2407167376
 C       -11.1300386425       10.2075876214        2.8151571091
 C        -9.4762096244       10.3431298815        2.7597797705
 O        -8.9047725297       11.4278749678        2.8510811538
 C        -8.7333663157        9.0483457937        2.7358064661
 C        -7.7994525525        8.9590014425        1.4970718440
 C        -7.3261595234        7.4706971845        1.3550883586
 O        -7.3044802317        6.6749407409        2.2583185340
 C        -6.8087287166        7.0651648849       -0.1040018030
 C        -8.0068868367        6.4889228146       -0.9589761213
 O        -8.8123540074        7.1625690229       -1.5083506508
 C        -8.0411311198        4.9906472379       -1.1171276171
 C        -9.3844969874        4.5327081998       -1.7468707801
 C        -9.4377028664        3.0149968209       -1.6151976321
 O        -8.5613799846        2.3168771446       -1.1262795676
 C       -10.8822245841        2.3693749594       -1.8702669166
 C       -10.8837249964        0.7759255354       -1.8578563257
 O       -11.1914825717        0.2150131302       -0.7720601744
 C       -10.5788258960       -0.0675266417       -3.1228817892
 C       -10.6046369035       -1.5671864078       -3.0188470133
 C        -9.5929284356       -2.0912742279       -2.0080434261
 O        -8.5815802928       -1.5157754369       -1.7318174653
 C        -9.8491226457       -3.5118278392       -1.3569178477
 C        -8.8901452994       -3.7527338798       -0.0480097370
 O        -9.2897453403       -3.8145758194        1.0858948424
 C        -7.4368522366       -3.8664186483       -0.2913275976
 C        -6.6608270515       -3.5414119235        0.9804033385
 C        -6.9208393190       -2.1253090341        1.3870090219
 O        -6.7657420544       -1.3006084110        0.5199889111
 C        -7.3694777288       -1.6585091853        2.8652894517
 C        -8.8461769764       -1.1508490889        2.8507911075
 O        -9.1500469428       -0.2295130701        2.1320788200
 C        -9.8685613653       -1.7623846411        3.8088187752
 C        -7.1911049788       -2.8631522612        3.8459670484
 C        -6.5413467521       -0.4405532536        3.2577383030
 C       -11.2759854440       -3.7681791618       -0.8601667465
 C        -9.5085072446       -4.6160288722       -2.4221072708
 C       -11.8699645244        2.9330969428       -0.8177581996
 C       -11.3282921448        2.8460705298       -3.2809800246
 C        -6.2946618025        8.3315894823       -0.7728940442
 C        -5.7143588618        5.9761582187        0.0204343270
 C       -11.5764628132       11.6159183391        2.5368580533
 C       -11.4481057043        9.7764479854        4.2750782412
 C       -11.4284657480        7.5401446890       -3.5966499219
 C       -13.6564446574        8.5416036363       -4.2722922072
 H       -15.4152150794        5.7831854622       -1.8905617752
 H       -15.5937384152        6.6927430689       -3.2649484289
 H       -15.3303367589        7.6116091713       -1.8463444169
 H       -10.9849425991        8.1626030273       -0.8236748414
 H       -12.5940898886        7.7217829757       -0.2047974510
 H       -12.9024688870       10.1587445931        0.3754407891
 H       -11.1250773726       10.3711648915        0.2551193432
 H        -9.4560604278        8.2038010935        2.8628937710
 H        -8.2190802148        8.8784846060        3.6448673400
 H        -6.9125035517        9.5890990741        1.5526024362
 H        -8.2199586377        9.1509689099        0.5624717207
 H        -7.9310724457        4.6243723855       -0.0795064134
 H        -7.1833830173        4.6832416150       -1.7208090192
 H        -9.4257595892        4.8473132847       -2.8553333395
 H       -10.3009906728        4.8756295503       -1.3290895913
 H        -9.5702585614        0.2799064545       -3.4165913526
 H       -11.2354828459        0.1758632919       -3.9869546776
 H       -10.2482028794       -2.0022310907       -3.8844321612
 H       -11.6106026409       -1.9872142256       -2.8736924346
 H        -7.1281238061       -3.3123522230       -1.1403819488
 H        -7.2994852979       -4.9299275269       -0.5094132904
 H        -5.6316919145       -3.4608705853        0.7598793413
 H        -6.8830661970       -4.2787501376        1.7279404249
 H       -10.8593047859       -1.2205101553        3.7529199180
 H        -9.4731237560       -1.6038490022        4.8339482173
 H        -9.9335465556       -2.7809683403        3.6192779955
 H        -7.8577647148       -3.6985497526        3.5550306811
 H        -7.3678451532       -2.4869711977        4.8547529528
 H        -6.1866809832       -3.1969613399        3.6719152968
 H        -6.9001928657        0.3254924975        2.5415801838
 H        -5.5306313453       -0.6024380361        3.0237388042
 H        -6.6790413959       -0.0991853644        4.2499293022
 H       -12.0654368347       -3.8109564043       -1.6622493167
 H       -11.4571741759       -2.9685725289       -0.1124704953
 H       -11.2080395089       -4.7457452375       -0.3581883608
 H        -9.8032487571       -5.5475339570       -2.0099691513
 H        -8.4147869591       -4.5391438124       -2.5417353099
 H       -10.0107551158       -4.5048530018       -3.3707528007
 H       -12.4708271327        2.0724921666       -0.4463281442
 H       -12.5902047973        3.4862657110       -1.3410015799
 H       -11.3939610589        3.5024126182       -0.0139037136
 H       -12.3018621214        2.4695385459       -3.5174779150
 H       -10.6686959486        2.4873321797       -4.0305773149
 H       -11.4174473717        3.9683969032       -3.3758271410
 H        -5.4152906920        8.7978819525       -0.2028460936
 H        -7.0459700301        9.1269545221       -0.9766499659
 H        -5.8481214965        7.9283156095       -1.7063562159
 H        -5.3728670871        5.7098266142       -1.0618249414
 H        -5.9966033084        5.1360304784        0.5946977288
 H        -4.7983498659        6.3943470567        0.4679564031
 H       -11.2126117061       12.3471240154        3.1988082182
 H       -12.6649284789       11.6507272231        2.5286472044
 H       -11.3223489076       11.8093191586        1.4706188231
 H       -12.5531725038        9.6626297247        4.4277754621
 H       -10.9585635555       10.4946712173        4.9928372336
 H       -10.9721791536        8.8298829093        4.4854750074
 H       -10.7721374296        7.1596902182       -2.7654036841
 H       -11.0029978161        8.3773864216       -4.0797129592
 H       -11.6007575567        6.7679734258       -4.3712733774
 H       -13.8292680352        7.7432421660       -5.0363209708
 H       -13.2000480461        9.3665919170       -4.7256714442
 H       -14.6154867913        8.9815863329       -3.8727065193
 Na       -8.6630617694        0.0878037315        0.0594229846
