117

 C       -15.1299506931        6.7149837709       -2.3601293331
 C       -13.5300948281        6.6334349184       -2.6572781647
 O       -12.9582017130        5.5851628990       -2.4644013390
 C       -12.8437695425        7.8754560805       -3.1501737794
 C       -12.7315771664        8.8816605628       -1.8808034311
 O       -13.3159612931        9.9422445618       -1.9085894870
 C       -11.9448889702        8.4433587845       -0.6743561746
 C       -11.8752123808        9.5818895403        0.3520765261
 C       -11.6192182220        9.1435664814        1.8454082271
 O       -12.0464007466        8.0712379323        2.2835973975
 C       -11.0623733431       10.2815783205        2.8392123361
 C        -9.5340090815       10.3188312061        2.7381339471
 O        -8.8883178001       11.3836222319        2.7915878053
 C        -8.7480022800        8.9634759796        2.7263008417
 C        -7.7183754094        8.9724728234        1.5471916426
 C        -7.2754857120        7.5130368754        1.2992018536
 O        -7.2116755708        6.7547387630        2.2479828866
 C        -6.7768569741        7.0707957726       -0.2174231316
 C        -8.0270703570        6.4844230205       -0.9492297198
 O        -8.8360198218        7.2123947049       -1.4958661212
 C        -8.1054071234        4.9202567212       -1.0528389800
 C        -9.4199471874        4.4430284943       -1.7063230417
 C        -9.5235178867        2.9582499740       -1.5222735075
 O        -8.5081488917        2.3866774825       -1.1595534358
 C       -10.8961172972        2.3035540305       -1.9274663483
 C       -10.8834591872        0.7776488378       -1.8356380693
 O       -11.0284467871        0.1842623196       -0.7443992281
 C       -10.6206985784       -0.0150525512       -3.0960497923
 C       -10.6652561692       -1.5678332033       -2.9664717880
 C        -9.6491063937       -2.1565210904       -1.9134319840
 O        -8.6589647433       -1.5415258400       -1.6778243147
 C        -9.8663488734       -3.6191347277       -1.2570424038
 C        -8.8803041480       -3.7754934582       -0.0999021152
 O        -9.3669577187       -3.7905789443        1.0356698867
 C        -7.3161295111       -3.8165450935       -0.3781741733
 C        -6.6536667628       -3.6974378661        1.0030628261
 C        -6.9713215953       -2.1889573258        1.4261670622
 O        -6.8456598726       -1.2744890079        0.5809334798
 C        -7.4225791224       -1.6738815482        2.8482060924
 C        -8.8800260477       -1.1422796924        2.8668574951
 O        -9.2374994041       -0.1894923727        2.2121774919
 C        -9.9814409274       -1.8359670298        3.7308994965
 C        -7.1441103735       -2.7876120601        3.9606951160
 C        -6.4902323402       -0.4455754681        3.2011822073
 C       -11.3543593959       -3.6324678767       -0.7562208799
 C        -9.4794103615       -4.6570549549       -2.3962974116
 C       -11.9084111094        2.8535962845       -0.7697940474
 C       -11.3082986777        2.8280785635       -3.2923148615
 C        -6.2401389959        8.3062612523       -0.9421700894
 C        -5.6510287990        6.0857774674       -0.0179702257
 C       -11.7123001732       11.7216878142        2.5143466665
 C       -11.4242712856        9.9211552013        4.2887759413
 C       -11.3856113184        7.4811936199       -3.5302546484
 C       -13.6332739926        8.5807997687       -4.2161551008
 H       -15.4019513874        5.9566317738       -1.6044040668
 H       -15.7489865288        6.4388230383       -3.1475051419
 H       -15.3475062090        7.7528574368       -2.0983974038
 H       -10.9453533677        8.3068665078       -1.0385387426
 H       -12.3398761416        7.5359871876       -0.2236305126
 H       -12.8319077352       10.1582496205        0.2844093966
 H       -11.0784562519       10.2818520789        0.1690373356
 H        -9.4137329876        8.1175214118        2.6892800225
 H        -8.3362186584        8.7480077818        3.7338595169
 H        -6.7960494710        9.3995415301        1.7679670194
 H        -8.0769011551        9.3920467619        0.5780929921
 H        -8.0209156226        4.5210838105        0.0418369949
 H        -7.2563472600        4.6429713071       -1.6488222509
 H        -9.3745450488        4.5725142502       -2.8266949832
 H       -10.3796280336        4.9642576740       -1.4323806777
 H        -9.7565439354        0.4030812456       -3.6623348966
 H       -11.4550044362        0.1974070730       -3.7284257385
 H       -10.4416270327       -2.1271140265       -3.9392731409
 H       -11.6384866471       -1.8396546209       -2.7216623443
 H        -7.0588759086       -2.8969266906       -0.9151459709
 H        -7.0510576498       -4.6376703715       -0.9970014350
 H        -5.5438871531       -3.6233104739        0.9907012500
 H        -7.0611473987       -4.3922981953        1.6866314213
 H       -10.9238690700       -1.2712753159        3.7301016596
 H        -9.6968339036       -2.0374126512        4.7308853519
 H       -10.0690394080       -2.8218142570        3.2222866476
 H        -7.6420799633       -3.7271274038        3.6069134077
 H        -7.6454906304       -2.4337781185        4.8521784615
 H        -6.1002404419       -2.9316889538        4.0560085029
 H        -6.7377845551        0.3396013866        2.5204719570
 H        -5.4046914937       -0.7198532822        3.0130864040
 H        -6.5837899330       -0.1351342139        4.1857975426
 H       -12.0358539825       -3.2612214941       -1.5359258093
 H       -11.3500603675       -2.9474004508        0.0245343600
 H       -11.6936447874       -4.6178085835       -0.4640718129
 H        -9.3866357822       -5.7191153919       -2.0062787297
 H        -8.6352777338       -4.3130192595       -2.9048852266
 H       -10.3598740273       -4.6465442640       -3.0587541802
 H       -12.3634643900        1.9695614481       -0.3958568505
 H       -12.7303471645        3.4079645365       -1.2295851402
 H       -11.4200743058        3.4038701940        0.0262659109
 H       -12.3766584517        2.6364558448       -3.5151366673
 H       -10.7085824866        2.5148214513       -4.1461279666
 H       -11.2823463956        3.9112355999       -3.2368049709
 H        -5.5512139880        8.9406227198       -0.3168874464
 H        -7.1005431148        8.9627280264       -1.2735018945
 H        -5.6617588196        7.9262459601       -1.7865539162
 H        -5.3807796968        5.7490341838       -0.9526004202
 H        -5.8739431768        5.2619051335        0.6463331009
 H        -4.8270222294        6.6057898945        0.3743728555
 H       -11.5671196997       12.4608202202        3.3606392742
 H       -12.7947805816       11.5940792832        2.3950233831
 H       -11.3957034601       12.1279616510        1.5877127556
 H       -12.4826600329        9.6627169848        4.3314533920
 H       -11.0619020423       10.6489990713        5.0298516286
 H       -10.8317026785        8.9942664868        4.5411062119
 H       -10.9144513154        7.0427564125       -2.6566780583
 H       -10.8537781090        8.3525843556       -3.9530551615
 H       -11.4573347735        6.7258386942       -4.3859693174
 H       -13.9329765712        7.9725218372       -5.0660573193
 H       -13.1165262736        9.5284258757       -4.4965076377
 H       -14.5407992343        9.0560558877       -3.6737798213
 Na       -8.6643846919        0.2439259402        0.0428184718
