117

 C       -15.0468691459        6.5839512050       -2.1927095512
 C       -13.5363375025        6.6694157036       -2.4251958582
 O       -12.7556132425        5.7522769935       -2.1797178312
 C       -12.9191441994        7.9805224961       -3.0737429437
 C       -12.9879780103        9.0405687895       -1.8876246186
 O       -13.5940553234       10.0610095420       -2.0023812154
 C       -12.2579881697        8.6774528229       -0.6263283634
 C       -11.9826527387        9.8326846754        0.3809978210
 C       -11.6962666522        9.2794635313        1.8192645760
 O       -11.6618850144        8.0711561598        2.0128322971
 C       -11.1820125376       10.3092943977        2.9882133266
 C        -9.5897962697       10.2659204493        2.9200607115
 O        -8.9487850125       11.3123751811        2.7786464652
 C        -8.8010461711        8.8648625538        2.9350740508
 C        -8.3701540018        8.5881498876        1.4783491213
 C        -7.4619015208        7.3303110991        1.3163301736
 O        -7.6262839749        6.4418962208        2.1177774447
 C        -6.7040779377        7.0004205684       -0.0153874500
 C        -7.8770088948        6.4078333521       -0.9010607187
 O        -8.7276865851        7.1298777061       -1.2993238921
 C        -7.9666414659        4.8219115308       -1.1274054876
 C        -9.1666841425        4.4328662773       -1.9445888518
 C        -9.5663216887        2.9751796997       -1.6005981983
 O        -8.7558775087        2.2804523344       -1.0058383722
 C       -10.9796881723        2.3512749393       -1.9814369307
 C       -10.8259142599        0.8476110239       -1.9453291205
 O       -11.0978119618        0.2414639284       -0.8765623137
 C       -10.3351421079       -0.0213422206       -3.1170762547
 C       -10.6359653691       -1.5111780589       -2.8980685594
 C        -9.4644495801       -2.1635677327       -2.0791555662
 O        -8.4578092740       -1.6353933208       -1.7739262462
 C        -9.7695563156       -3.6468605814       -1.4446301900
 C        -8.9181073390       -3.6163103929       -0.1221555435
 O        -9.4504260902       -3.5233330392        0.9547786711
 C        -7.3989475886       -3.8874135748       -0.3239977933
 C        -6.5184293584       -3.4289969842        0.8072417589
 C        -6.8831287364       -2.0280022281        1.3495067510
 O        -6.7155144014       -1.0648203745        0.5991499141
 C        -7.2344304697       -1.6913618136        2.8982067001
 C        -8.8223675861       -1.2047104296        2.8246857956
 O        -9.2638510855       -0.5667142206        1.9148279364
 C        -9.5969345220       -1.5427410131        4.0997780339
 C        -7.0437903972       -2.8982463730        3.7748811551
 C        -6.3644545324       -0.4752347704        3.3986915109
 C       -11.3304106589       -3.7154039477       -1.1333865022
 C        -9.2611920678       -4.5405763186       -2.5569752834
 C       -11.9994526122        2.7923670272       -0.8531808265
 C       -11.4774982971        2.9191608193       -3.3369014085
 C        -6.0827541488        8.2613947639       -0.7831150659
 C        -5.4757241240        6.0977377630        0.3374224453
 C       -11.7804399861       11.6922665477        2.9200949315
 C       -11.6088481808        9.6185804901        4.3576113561
 C       -11.4545158722        7.7902995923       -3.4669085046
 C       -13.8391550098        8.6027534424       -4.2517033055
 H       -15.2141730864        5.4783117982       -2.0832112683
 H       -15.6556951191        6.9847122929       -2.9717761533
 H       -15.2887789768        7.1940081621       -1.2556085120
 H       -11.3486451806        8.0835005892       -0.7723478771
 H       -13.0265861535        8.0463949751       -0.1210033972
 H       -12.8957064347       10.4531648013        0.4542803516
 H       -11.1275585755       10.4064002197        0.0898143349
 H        -9.4739556066        8.1134559122        3.3653566455
 H        -8.0132536551        8.8516142320        3.7132273352
 H        -7.8651904530        9.4384467327        1.0564710725
 H        -9.1910078577        8.4265478332        0.6886739915
 H        -8.1105271760        4.4201176836       -0.0586016170
 H        -6.9796786845        4.4933203308       -1.3382568936
 H        -8.9659555082        4.4899101351       -3.0556108198
 H        -9.9769590303        5.0879723952       -1.6157215761
 H        -9.2518425707        0.1241537289       -3.2857362551
 H       -10.8575531108        0.2300525682       -4.0064862475
 H       -10.7950415327       -2.0908006817       -3.8700642752
 H       -11.5285897594       -1.6321951529       -2.2717276516
 H        -7.0215757801       -3.4764121562       -1.2858082280
 H        -7.2220408831       -4.9663591075       -0.3693483895
 H        -5.4748405131       -3.5243626973        0.3296047275
 H        -6.5763291080       -4.1632429953        1.6143569283
 H       -10.6212026932       -1.0657570446        3.9826939324
 H        -9.1669037055       -1.1245619870        4.9775298971
 H        -9.7345924267       -2.5951514767        4.1591162669
 H        -7.4813773710       -3.7477353349        3.2132679933
 H        -7.4811271013       -2.6628962392        4.7342862196
 H        -6.0241794863       -3.0605085855        3.8990926372
 H        -6.2314500319        0.2973789421        2.5775791022
 H        -5.3542036562       -0.9051892013        3.6166542844
 H        -6.8265305458       -0.0151795192        4.2220428218
 H       -11.8744146134       -3.7841604189       -2.0667116418
 H       -11.5279425457       -2.8725919281       -0.5350760609
 H       -11.5370552992       -4.5615457151       -0.5162389712
 H        -9.3690769955       -5.6282798127       -2.3500131763
 H        -8.2685720244       -4.2299930641       -2.8351227594
 H        -9.9563429656       -4.3467586309       -3.4012257967
 H       -12.9784480688        2.5921624277       -1.2687789934
 H       -11.9789852412        3.8549573856       -0.6838571038
 H       -11.7493865642        2.2240158113        0.0455077179
 H       -12.3342722854        2.3742331593       -3.7988317059
 H       -10.6804905395        2.9116229257       -4.0739195732
 H       -11.7255733776        3.9891295987       -3.1309594308
 H        -5.5558742444        8.7924858965        0.0002141826
 H        -6.8321618425        8.8969645861       -1.1958188101
 H        -5.3914013553        8.0114102858       -1.5055942599
 H        -4.9302863140        5.7165212960       -0.5088166883
 H        -5.7480549099        5.3703842325        1.0198841674
 H        -4.7724924921        6.7202494312        0.7936842851
 H       -11.3996528186       12.2158884767        3.8134411476
 H       -12.8667924239       11.6582787620        2.9849256582
 H       -11.4394007943       12.2202594879        2.0265504546
 H       -12.6347276479        9.8294517532        4.5754972629
 H       -11.1004014182       10.1454491556        5.1659576088
 H       -11.4316339599        8.5575986130        4.3666791203
 H       -10.9459385186        7.2250606408       -2.6779648587
 H       -10.9677892930        8.7298677464       -3.5382137172
 H       -11.4900376435        7.0968385583       -4.3345859727
 H       -13.9105521846        8.0262010812       -5.1671052446
 H       -13.3321744110        9.4617474034       -4.6254371561
 H       -14.8311211956        8.9407014192       -3.7589301933
 Na       -8.6597721738        0.0949820850       -0.2802982711
