117

 C       -15.0691734496        6.7567118033       -2.4315680907
 C       -13.5396077312        6.5458893096       -2.6560525765
 O       -13.0202632857        5.4131745229       -2.5768556163
 C       -12.6455191489        7.7770235103       -3.0883161141
 C       -12.5967923093        8.8324536013       -1.8134164919
 O       -13.2262087665        9.8556205011       -1.8877028781
 C       -11.7679340292        8.3647057281       -0.5268634084
 C       -11.5033795662        9.5775656769        0.2939515069
 C       -11.6240265331        9.2401844293        1.7730229169
 O       -11.9163988441        8.1026540619        2.1890132139
 C       -11.1618126416       10.3110595801        2.8009294305
 C        -9.5313107552       10.3008178801        2.5862512919
 O        -8.9709183254       11.4044918077        2.3918996849
 C        -8.7732352906        8.9488815946        2.5067481282
 C        -7.7728304085        9.0057159162        1.3175262777
 C        -7.1349449970        7.5668878177        1.1124341212
 O        -7.0692838391        6.7599105109        2.0362459291
 C        -6.6475910222        7.1634593117       -0.3529498323
 C        -7.9464888644        6.5028369612       -0.8454886640
 O        -8.8453498823        7.1828353888       -1.2510817576
 C        -8.1883684696        4.9780431203       -0.6543595678
 C        -9.3441560391        4.5559735365       -1.5658601502
 C        -9.5253866181        3.0433701946       -1.4283993650
 O        -8.5874249534        2.3401993185       -1.0886952698
 C       -10.9263071703        2.3503579845       -1.8450597420
 C       -10.7674658714        0.7838443527       -1.8629723130
 O       -10.6559959523        0.2299855369       -0.7244306021
 C       -10.7158226501       -0.1176157870       -3.0671148470
 C       -10.9602157030       -1.6064752693       -2.8380663696
 C        -9.8142949220       -2.0853696944       -1.8489780694
 O        -8.8102904241       -1.4847850431       -1.7004282143
 C       -10.0368846662       -3.6175323966       -1.2666780179
 C        -9.0176621999       -3.8519016892       -0.0392390151
 O        -9.4348283337       -3.6886733062        1.0955251704
 C        -7.4894016738       -3.9586652779       -0.1943023462
 C        -6.7433553894       -3.5036605045        1.1402480577
 C        -7.0049540817       -2.0426330074        1.5642307456
 O        -7.1531830408       -1.2649155694        0.6321284296
 C        -7.3993159670       -1.6474902372        2.9587893789
 C        -8.9476711453       -1.2304318802        2.8362787982
 O        -9.2998835889       -0.2089440092        2.2654667754
 C        -9.9940896712       -2.1401990802        3.4748381903
 C        -7.0963862118       -2.7782358360        3.9691019680
 C        -6.6161912037       -0.3029558382        3.3932404255
 C       -11.4537524816       -3.8003618535       -0.6019079335
 C        -9.7250841686       -4.5567422202       -2.4482595680
 C       -12.0636970762        2.6190650115       -0.7362372538
 C       -11.5384019251        2.7718857565       -3.2541340151
 C        -6.2651053185        8.4166379467       -1.1925794757
 C        -5.3135458871        6.3034473228       -0.3364110440
 C       -11.5952481910       11.7360106058        2.4980290027
 C       -11.5358373748        9.9311033768        4.2312192753
 C       -11.2841339352        7.3227871855       -3.6302310556
 C       -13.4301310321        8.5705493653       -4.2351711082
 H       -15.3280348895        6.1929471321       -1.5112393463
 H       -15.5520970291        6.1194752142       -3.1149761873
 H       -15.4744648820        7.7843428778       -2.4434436538
 H       -10.7762476077        7.9199044837       -0.7189687385
 H       -12.4219583740        7.6621198541        0.0011792068
 H       -12.2650527949       10.3564829245        0.0863828793
 H       -10.5437726230       10.1131998579        0.1443907800
 H        -9.6096785391        8.1847136232        2.3756514039
 H        -8.3062405176        8.6778073126        3.4551124440
 H        -6.9750020870        9.7289334897        1.5405322525
 H        -8.2936780916        9.2088117539        0.3894270033
 H        -8.6550456194        5.0010568591        0.3364392919
 H        -7.3724171981        4.3406112194       -0.8178565901
 H        -9.3067406507        4.8015893677       -2.6549762922
 H       -10.2301999806        5.0377075856       -1.3097807426
 H        -9.7333040492       -0.0587676590       -3.6176984312
 H       -11.4142901029        0.3028530174       -3.8224355893
 H       -10.9876666858       -2.1616168090       -3.7329849505
 H       -11.9003743778       -1.8203530450       -2.3529903670
 H        -7.1362379199       -3.3337875637       -1.0268779153
 H        -7.1557706894       -4.9971165637       -0.4184006287
 H        -5.7193364595       -3.4522058858        0.7985369834
 H        -6.8976853358       -4.1542292798        1.9769091154
 H       -10.9312753219       -1.5096958260        3.5454118011
 H        -9.7196088242       -2.4631625035        4.4686901988
 H       -10.0851303691       -3.0338195043        2.8936634927
 H        -7.9579643065       -3.4911226358        3.8861300086
 H        -7.1385141478       -2.3871537533        4.9937896362
 H        -6.1267232509       -3.1376122623        3.7489306160
 H        -6.7375975284        0.4302246394        2.5560473456
 H        -5.5190004054       -0.4461019680        3.5790574040
 H        -6.9854639534        0.0640343662        4.2775282757
 H       -12.2511128934       -4.0192627889       -1.4167620250
 H       -11.7999806546       -2.8656280638       -0.1233711736
 H       -11.5022905379       -4.7349108627        0.0473938907
 H        -9.6293834463       -5.5880265514       -2.1167629194
 H        -8.7914872870       -4.2348503128       -2.8735552309
 H       -10.5299918259       -4.4231018133       -3.1755284589
 H       -12.8779710188        1.8687301566       -0.6730615991
 H       -12.4235718836        3.6247900863       -0.9335714394
 H       -11.5548930813        2.6276381875        0.2567941889
 H       -12.4283892711        2.2278508808       -3.5418254631
 H       -10.8349860497        2.7102572096       -4.0505710128
 H       -11.8754249295        3.8438167605       -3.2427085528
 H        -5.5613683386        9.0205567687       -0.6169917350
 H        -7.1444034738        9.0223996967       -1.3288779751
 H        -5.8956911004        8.1914504098       -2.1366962169
 H        -5.1178611674        5.8133316945       -1.3328995264
 H        -5.5081001053        5.4522421481        0.4016787924
 H        -4.5540923787        6.9853081895        0.1439181838
 H       -11.0835098988       12.4491806079        3.1301057295
 H       -12.6632776598       11.8433784787        2.6000296124
 H       -11.3704754186       12.0225588052        1.4678829204
 H       -12.5911691178       10.0271693531        4.3760356086
 H       -10.9271313798       10.5043184754        4.9162488753
 H       -11.2785191012        8.9309369817        4.4505822392
 H       -10.9965451244        6.5150907820       -2.9798252648
 H       -10.6154018254        8.1043851817       -3.6731967845
 H       -11.3483149008        7.0532356180       -4.6715885314
 H       -13.6193516874        7.9375230879       -5.0389938392
 H       -12.9847246524        9.4736974644       -4.4670426365
 H       -14.4944800151        8.8174169229       -3.9368665347
 Na       -8.4133659426        0.3690897929        0.2341043675
