117

 C        -4.6863776578       -5.8761261962        3.5518392577
 C        -6.0131970040       -5.2696142164        3.0296274162
 O        -6.1047537347       -4.5987912677        2.0204778434
 C        -7.3239214353       -5.4619010706        3.9412851727
 C        -7.6515750955       -4.1336725053        4.7088324284
 O        -7.7087262858       -4.1215430294        5.8922294858
 C        -7.8096155248       -2.7352949782        3.9487778698
 C        -7.8201257059       -1.5863886722        5.0009635985
 C        -8.5920996981       -0.4382458817        4.4948717891
 O        -9.0383263367       -0.6028198204        3.3572281505
 C        -9.0154143199        0.7947015756        5.3033649773
 C        -8.9264718752        2.1017856612        4.4098185966
 O        -8.1427316769        2.9432192128        4.7790501047
 C        -9.8088083500        2.3238909451        3.1407593685
 C        -9.0357471868        2.5809857284        1.7885721338
 C        -9.8835234792        3.1043153496        0.6312885267
 O        -9.6889728999        4.2606408726        0.2512262158
 C       -10.9267138303        2.1941784388       -0.0823668634
 C       -12.3486407583        2.7053689272        0.2929856375
 O       -12.5771731361        3.0073145866        1.4795269746
 C       -13.5586306959        2.5907616320       -0.6909583784
 C       -14.3132229454        4.0187003694       -0.7576953806
 C       -13.3842105960        4.9902497020       -1.3574179489
 O       -12.1803622350        4.7532693924       -1.2130130170
 C       -13.7263675985        6.3878726469       -2.0175878538
 C       -12.7147165397        6.4106647433       -3.3564134626
 O       -11.5038769188        6.3260275908       -3.1835237157
 C       -13.3326812658        6.6903245241       -4.7631404283
 C       -12.1764180797        7.3447344738       -5.6215736389
 C       -11.8099562199        8.6591818399       -4.8703344448
 O       -12.4037683402        9.0228120530       -3.8777830396
 C       -10.5624866443        9.3030443635       -5.4818622940
 C        -9.4708253236        9.3814049606       -4.3089955068
 O        -8.5088803615        8.6088252574       -4.1908886844
 C        -9.7147022309       10.4654410512       -3.2001436477
 C        -8.7468560930       10.1493351687       -2.1014946897
 C        -8.7742510766        8.7118457702       -1.4616286231
 O        -9.7987775997        8.3037034047       -0.9015051347
 C        -7.3978127115        7.9095942357       -1.3300688255
 C        -7.2992546705        6.9408321000       -2.5120656796
 O        -8.1112087015        6.0189965991       -2.6501539561
 C        -5.9840310331        6.7582667311       -3.2781914760
 C        -6.3649565423        8.9344096253       -0.9791915990
 C        -7.6331821351        6.9086512446       -0.0190949613
 C        -9.9364527225        8.5833634467       -6.6794789681
 C       -10.9761069121       10.7807975955       -5.8579627420
 C       -15.2487124146        6.6329229262       -2.4671911110
 C       -13.2403094018        7.5374831558       -1.0839745009
 C       -10.6488230585        2.2067524212       -1.6753209861
 C       -10.8912199897        0.7222792068        0.3899241966
 C       -10.4184278741        0.5589735481        5.8843690721
 C        -7.9220941653        0.9033412250        6.4484612820
 C        -8.4173263484       -5.8380351519        2.8912323013
 C        -7.1795888599       -6.6459070452        4.8944178036
 H        -4.1206919778       -6.2343306513        2.6736510558
 H        -4.8997228554       -6.7767813672        4.1635493482
 H        -3.9764839892       -5.2092808339        4.0762877086
 H        -8.6563756436       -2.7813131038        3.2280010567
 H        -6.9962000225       -2.5619684076        3.2420183055
 H        -6.6775166406       -1.4107109556        5.1077787325
 H        -8.1798571302       -1.9441920399        5.9242027404
 H       -10.4946165222        3.1722853805        3.3564652374
 H       -10.4547634293        1.5045436775        2.9622822646
 H        -8.6537622118        1.5792547843        1.4775249266
 H        -8.1901715759        3.2524454762        1.8899340597
 H       -14.3671914801        1.9338785628       -0.3842378308
 H       -13.1319995085        2.4821984984       -1.6699627406
 H       -14.4738084664        4.3726572281        0.2845795234
 H       -15.2278392018        3.8565021226       -1.3603040135
 H       -14.1443813774        7.5298701136       -4.6417451583
 H       -13.9186480710        5.7686636941       -5.0696133557
 H       -12.5286421706        7.6665572906       -6.6092099653
 H       -11.2838968557        6.7579985311       -5.7600827449
 H       -10.7891022190       10.3961570741       -2.7962954158
 H        -9.5931919630       11.3991217011       -3.6427892482
 H        -8.9274433065       10.9466156377       -1.3396623783
 H        -7.8044416094       10.1769330036       -2.5894576119
 H        -5.6222341722        7.6619133252       -3.7424906011
 H        -6.2028534305        6.0841819976       -4.1039221296
 H        -5.2993680775        6.1910636004       -2.5871467417
 H        -6.5660611287        9.4625074110       -0.0670849443
 H        -6.0776410971        9.5977490198       -1.8270932666
 H        -5.5093111267        8.3199105010       -0.7405308657
 H        -8.2154487974        7.3511737145        0.7685059118
 H        -6.7004567036        6.7344889809        0.2890459482
 H        -7.9683791584        5.8294910998       -0.2225269182
 H        -9.0214519508        9.0908391156       -7.0961110596
 H       -10.7010803072        8.5829202322       -7.4935654468
 H        -9.5963186852        7.6246871831       -6.3707405795
 H       -10.0380672222       11.3324282090       -6.1461054012
 H       -11.3757820882       11.3720823522       -5.0824772175
 H       -11.6252043462       10.8544631552       -6.6697267196
 H       -15.7765587629        6.7553528545       -1.5262070195
 H       -15.7583181286        5.8709790707       -3.0743304945
 H       -15.2273478160        7.6123873669       -2.9053074913
 H       -14.0326034295        7.6280698215       -0.2432855517
 H       -13.3109374189        8.5267863155       -1.5381258096
 H       -12.1949892013        7.4350263129       -0.6704674907
 H       -11.1780108777        1.4149367798       -2.1733490840
 H        -9.5479541061        1.9608591914       -1.8112698130
 H       -10.9015714183        3.2441400927       -2.0683250140
 H       -11.2333661067        0.4377753092        1.3778436991
 H        -9.8803930344        0.3852918608        0.3437176261
 H       -11.4765661864        0.0365350079       -0.2783173376
 H       -10.6023787918       -0.5243766901        5.9669474761
 H       -11.1510577619        0.9735126249        5.2483642343
 H       -10.4796981505        0.9547995054        6.9024790007
 H        -8.3209747939        0.2189011168        7.2428244116
 H        -7.6922555041        1.8987602760        6.7909705127
 H        -6.8849344626        0.5075602292        6.1766023752
 H        -8.5229088906       -5.1560979999        2.0440204941
 H        -9.3867869368       -5.9041195686        3.3579052073
 H        -8.1245391812       -6.7809911273        2.3940203604
 H        -6.3641005453       -6.4823239674        5.6129878713
 H        -7.0922822660       -7.6201303796        4.3720955954
 H        -8.1922902610       -6.7610292127        5.3389648713
 Na      -10.0156214280        6.0461456925       -1.3291362539
