117

 C       -14.9613439421        6.7480933770       -2.4051460106
 C       -13.4760692917        6.5878309441       -2.6537206055
 O       -13.0103744748        5.4510741312       -2.3983488516
 C       -12.6085038924        7.7381392976       -3.1642741338
 C       -12.5554157930        8.8044068383       -1.9511084202
 O       -13.2718062466        9.7622716420       -1.9473511338
 C       -11.8279287224        8.3947943120       -0.6777055794
 C       -11.5151843511        9.5820333085        0.1652271757
 C       -11.5888692185        9.2427917339        1.6738033098
 O       -12.1128390268        8.2027508932        2.0717786594
 C       -10.9235486262       10.3059784434        2.6648637328
 C        -9.4508522512       10.3268409548        2.4376204617
 O        -8.8702524190       11.3950538476        2.1041730597
 C        -8.6221751603        9.0319905546        2.5869854383
 C        -7.9801126153        8.8990061954        1.2677334465
 C        -7.1070613991        7.6154992642        1.0521203015
 O        -6.7637879965        6.8461070762        1.9338540886
 C        -6.6918977484        7.2440480436       -0.4427447242
 C        -8.0093729255        6.6279241843       -1.0613897306
 O        -8.9203289495        7.2601736875       -1.5224543190
 C        -8.1402513835        5.1134619804       -0.7079118970
 C        -9.3358318344        4.5836912197       -1.3659676333
 C        -9.5074088019        3.0210446951       -1.2704285391
 O        -8.5849446801        2.3555039985       -0.8058912835
 C       -10.9339764541        2.3602262980       -1.6968629591
 C       -10.8295941946        0.8343702563       -1.7277673647
 O       -10.6314119146        0.2901369282       -0.6406640436
 C       -10.9034840648       -0.0860719777       -2.9059258686
 C       -10.9763964218       -1.5218564011       -2.5030551925
 C        -9.7963020014       -2.1074401674       -1.8234694410
 O        -8.7592360590       -1.4935461859       -1.7883999073
 C       -10.0728154625       -3.6601694101       -1.1946476088
 C        -9.1970892769       -3.7553219425        0.0977139154
 O        -9.6578162410       -3.7917783468        1.2146053490
 C        -7.6786185535       -3.8734330376       -0.1898765817
 C        -6.8932909623       -3.5630293874        1.0602399521
 C        -7.0574196249       -2.0560573944        1.5046955708
 O        -6.8001946523       -1.1823532508        0.7438957045
 C        -7.4439912922       -1.6768029739        2.9408084971
 C        -9.0786105865       -1.3477127169        2.9208391228
 O        -9.5016001415       -0.3851701089        2.2746488722
 C        -9.9581359865       -2.0262674392        3.9158177213
 C        -7.2685152762       -2.8500208993        3.9763815587
 C        -6.7013812441       -0.3376947436        3.2083414338
 C       -11.5376104564       -3.9162242857       -0.8653934066
 C        -9.6528761383       -4.7845200255       -2.2898124583
 C       -12.0160070961        2.8787226462       -0.6838564200
 C       -11.1600880846        2.8585388401       -3.0812402625
 C        -6.3841019226        8.4546081697       -1.3296262239
 C        -5.4821411782        6.2199888028       -0.3661834947
 C       -11.6092659025       11.6022836948        2.4313494060
 C       -11.1408943397        9.7649551642        4.1299211249
 C       -11.2421979829        7.3230662336       -3.5509161010
 C       -13.1836002071        8.4020912584       -4.3971251635
 H       -15.4159351843        5.8789100377       -1.9138710932
 H       -15.4164939900        6.8589565913       -3.4197638435
 H       -15.2030446919        7.6198230877       -1.7737697924
 H       -10.8919299053        7.8074641780       -0.8531073590
 H       -12.5253035500        7.7356991117       -0.1265048939
 H       -12.1788902336       10.3914570955       -0.0040629617
 H       -10.5300584812       10.0516769262        0.0115561145
 H        -9.3613908235        8.1856467600        2.7931675320
 H        -7.8815613673        9.2150896588        3.3214338445
 H        -7.2372173753        9.7909757938        1.2298930878
 H        -8.7293676105        8.9293178366        0.4639867920
 H        -8.2716686931        5.0310285003        0.3434404805
 H        -7.2469950438        4.5846234062       -1.1553385402
 H        -9.5205269262        4.8931920566       -2.3995712824
 H       -10.2073797445        5.0307503415       -0.8932091762
 H       -10.0516054453        0.1643269029       -3.4892562169
 H       -11.7227149890        0.0522592152       -3.6107990584
 H       -11.2568555108       -2.1604960397       -3.3482886523
 H       -11.9250471964       -1.6190832362       -1.8134002991
 H        -7.4339117967       -3.1898027332       -1.0014409591
 H        -7.3224758054       -4.8814080085       -0.5031476765
 H        -5.8169874892       -3.7874558647        0.8780170773
 H        -7.3335170342       -4.2216791723        1.8928766172
 H       -10.9961916076       -1.6464992543        3.7458286039
 H        -9.6542931465       -1.5673396129        4.8731743307
 H        -9.8596150413       -3.0454836112        3.9623519121
 H        -7.7996230520       -3.7907098641        3.8004656361
 H        -7.4863556880       -2.4653575184        4.9680820172
 H        -6.1967437896       -2.9217522791        4.0129782170
 H        -6.9331187761        0.4726204523        2.4230318800
 H        -5.6303602705       -0.5457386454        3.1158704975
 H        -6.8871837453        0.0503996583        4.1927170841
 H       -12.1774124464       -3.7651749620       -1.7015408436
 H       -11.9074354176       -3.2052018960       -0.1365324675
 H       -11.6971252568       -4.8781729859       -0.4259515237
 H        -9.7936186432       -5.7414684898       -1.8576615003
 H        -8.5308767877       -4.7429305958       -2.3849183425
 H       -10.1332275874       -4.6267093373       -3.2571354790
 H       -12.9962037137        2.8431509263       -1.1750630868
 H       -11.7321670440        3.8383703165       -0.4068801346
 H       -12.1406829452        2.2294202234        0.1795446585
 H       -12.0712672694        2.3965267624       -3.4249836469
 H       -10.4224372124        2.4982829957       -3.7901203963
 H       -11.2852867437        3.9608514664       -3.2944294165
 H        -5.6727938686        9.1441487421       -0.8203574844
 H        -7.2720907424        8.9825015768       -1.6665019198
 H        -5.9320553801        8.0896247699       -2.2543390555
 H        -5.3854236900        5.7101440687       -1.3217654361
 H        -5.7649625103        5.5360887346        0.3854922996
 H        -4.6092757414        6.7382670200       -0.1541061846
 H       -11.2141616275       12.3456056119        3.0655478375
 H       -12.6952143125       11.5582877829        2.5186387058
 H       -11.3204980163       11.9881889230        1.4079423104
 H       -12.2523770835        9.7714185290        4.3082408145
 H       -10.6754155720       10.4514667387        4.8998850084
 H       -10.8091158572        8.7687318134        4.3091063517
 H       -10.6875495625        6.7129873345       -2.7574037612
 H       -10.7222876941        8.2288870302       -3.8315929521
 H       -11.2587793374        6.7477247230       -4.5051727089
 H       -13.5450840271        7.6947967614       -5.1812331282
 H       -12.4264986755        9.0538450745       -4.7072106220
 H       -14.1480333056        8.9532052469       -4.2316440227
 Na       -8.5478892304        0.3604122803        0.2920230618
