117

 C       -14.8738641427        6.5764629723       -2.6458107215
 C       -13.3551617945        6.6600994687       -2.6950486411
 O       -12.6850170242        5.8105109335       -2.1221118398
 C       -12.6642733907        7.9045254393       -3.3959825906
 C       -12.6324792015        9.0670723163       -2.2252948888
 O       -13.3422634070       10.0432122782       -2.2957810812
 C       -11.6315072044        8.8639221193       -0.9926017546
 C       -11.9238225223        9.8483565090        0.1679871054
 C       -11.5263328021        9.2241084215        1.4821661922
 O       -11.4860769201        8.0384557954        1.6456626742
 C       -10.8905781766       10.2246122605        2.5421647462
 C        -9.4225787373       10.4020934594        1.9767138760
 O        -9.1254990430       11.4490822771        1.5837711349
 C        -8.6497274059        9.0907480973        1.7976104430
 C        -7.7834006496        9.0908846234        0.5410945484
 C        -6.8020108023        7.9071722819        0.7250467728
 O        -6.5548869434        7.3686743549        1.7684231192
 C        -6.4152497321        7.1559026312       -0.5938863508
 C        -7.6582682714        6.3415065488       -1.0708527857
 O        -8.4947910126        6.8407151468       -1.7825170724
 C        -7.8319612049        4.8429064610       -0.6166885418
 C        -9.2078339497        4.3314309897       -1.2042860242
 C        -9.5272335933        2.8959111779       -0.9202561765
 O        -8.7924475712        2.1238875368       -0.3951532232
 C       -11.0283529118        2.4315549376       -1.4679487592
 C       -11.1291345066        0.9180526996       -1.2258086682
 O       -11.0141905759        0.3749174936       -0.1175878377
 C       -11.4123916174        0.0893105229       -2.4725301200
 C       -11.4199348058       -1.4364259687       -2.0796809395
 C       -10.0871153841       -2.0916534861       -1.6249408296
 O        -9.0601838534       -1.4809129931       -1.5400596175
 C       -10.0422967759       -3.6097007407       -1.2617050443
 C        -9.1881083641       -3.8087727565        0.1062501688
 O        -9.8488811896       -3.7768313835        1.1358211185
 C        -7.6670259686       -4.0765311618        0.0880088412
 C        -7.1229750432       -3.6656395866        1.5098846360
 C        -7.2042580212       -2.1338031438        1.6964869090
 O        -7.1367969999       -1.2756184848        0.8598571229
 C        -7.4693520277       -1.7016035663        3.1249797224
 C        -9.1343997110       -1.3633125847        3.2612800030
 O        -9.7843616722       -0.9208272530        2.3416834149
 C        -9.7934124932       -1.8188020259        4.5168334617
 C        -7.1717049327       -2.7878443952        4.2136290142
 C        -6.7549292866       -0.4111590601        3.3837128451
 C       -11.4184461294       -4.2950466780       -1.0880468280
 C        -9.3525685394       -4.4159595425       -2.3558354555
 C       -12.1173847163        3.2115268995       -0.5887259295
 C       -11.1580706382        2.9826794671       -2.8978202233
 C        -5.9893054007        8.1719979858       -1.7352970388
 C        -5.2063324718        6.1465774425       -0.4252320718
 C       -11.6046804277       11.5772029850        2.6649883584
 C       -10.8406386431        9.4776853914        3.9015173655
 C       -11.2072625688        7.6278880112       -3.7331567499
 C       -13.3459916016        8.4116330895       -4.6693275204
 H       -15.0905762465        6.1254100009       -1.6492150767
 H       -15.1998788371        6.0114254163       -3.4515549997
 H       -15.3539001337        7.5604340171       -2.6834970165
 H       -10.6740360971        8.9674596358       -1.5108710497
 H       -11.6435157811        7.8311142138       -0.7143249916
 H       -12.9625640609       10.1984465538        0.1224858695
 H       -11.2168391858       10.7093370746        0.0056382797
 H        -9.4199458304        8.2771651112        1.7616114049
 H        -8.0596045863        9.0250875103        2.6689674227
 H        -7.1163429543        9.9760879770        0.5180873351
 H        -8.3254806009        9.0835587896       -0.3476560476
 H        -7.6135589699        4.6996284996        0.4614202189
 H        -6.9648554072        4.2682743484       -1.0455246172
 H        -9.0223039991        4.2468551752       -2.3087656043
 H       -10.1101738344        4.9103506340       -0.9427777403
 H       -10.6682857682        0.3330756100       -3.2436449419
 H       -12.3949581511        0.3473009232       -2.9005734182
 H       -11.8111660038       -2.0916569734       -2.9280898131
 H       -12.1722838895       -1.4804903181       -1.2582775457
 H        -7.2095400828       -3.5530476064       -0.7245820477
 H        -7.4708477670       -5.1299314942       -0.0723767458
 H        -6.0747873486       -3.9682998093        1.6908996912
 H        -7.5506864190       -4.1952879216        2.3367006474
 H       -10.8302704337       -1.5091019106        4.3625417184
 H        -9.3773114516       -1.2894856511        5.3450679843
 H        -9.7929402595       -2.9375256271        4.6639301591
 H        -7.6953075407       -3.7911038017        4.1610870269
 H        -7.3907511248       -2.4014514289        5.2166703359
 H        -6.1677599401       -3.0958809192        4.2054679343
 H        -7.0780705433        0.3844220644        2.7853856938
 H        -5.6604360256       -0.5228194165        3.1779959538
 H        -6.8153835888       -0.1175368943        4.3920254371
 H       -12.0309773824       -4.5616924599       -1.9858953297
 H       -12.0803475496       -3.6606300629       -0.5069019613
 H       -11.4617996856       -5.2757973433       -0.5447700120
 H        -8.9941572037       -5.3845091393       -1.9829411270
 H        -8.5994455839       -3.8502577856       -2.7927175998
 H       -10.0595718615       -4.7909582921       -3.1062635656
 H       -13.0353284090        3.2486286488       -1.1827949676
 H       -11.8975403603        4.2860982178       -0.4158991944
 H       -12.2516364917        2.7342387771        0.3875618649
 H       -11.7730438993        2.4559254346       -3.6244767767
 H       -10.2480727324        3.1595669272       -3.4384433450
 H       -11.6263680169        3.9831569249       -2.8990001318
 H        -5.3342180499        8.9720878308       -1.4413244320
 H        -6.8456757000        8.7082762489       -2.1420983660
 H        -5.5115388502        7.6425674710       -2.4964737915
 H        -5.1595408580        5.5563672539       -1.2900854558
 H        -5.4061005274        5.5165009040        0.4991620605
 H        -4.2581977278        6.6568899137       -0.1624894340
 H       -11.0916502929       12.1496521322        3.4435974383
 H       -12.6516612976       11.5913693129        2.9035373894
 H       -11.4625325014       12.1306563989        1.7488270252
 H       -11.7562220903        9.5707060962        4.4676201794
 H       -10.0883501949       10.0293298295        4.4752254676
 H       -10.5070574616        8.4527270134        3.8471073567
 H       -10.6914433618        7.1775153346       -2.9326984917
 H       -10.6164776335        8.5001909558       -3.9189164961
 H       -11.1252459361        6.9135168158       -4.5707867846
 H       -13.2506409693        7.7191290500       -5.4599769817
 H       -12.8640369172        9.3314558148       -5.1251493844
 H       -14.3257755573        8.8704769479       -4.4838216713
 Na       -8.8656122009       -0.0283714353        0.4161267872
