117

 C       -14.8744425188        6.5947535236       -2.6774774289
 C       -13.3315229540        6.6424904742       -2.6424634756
 O       -12.7697949695        5.6579771553       -2.2134210456
 C       -12.5798556197        7.8257972847       -3.1695516271
 C       -12.5912174924        8.9856392592       -2.1490153315
 O       -13.2776384005        9.9648431075       -2.3102874697
 C       -11.6799224292        8.7740532695       -0.8988914410
 C       -11.8193654802        9.8524340893        0.1407528246
 C       -11.5772960599        9.2822229268        1.5390737670
 O       -11.7232436113        8.0631237632        1.6976833952
 C       -10.9461683932       10.2505710908        2.5857032576
 C        -9.4425142362       10.3876528752        2.1524669207
 O        -8.9743697502       11.4712296248        1.7503751279
 C        -8.5723680200        9.0914842005        2.0516594100
 C        -7.7503791103        9.0669714297        0.7396163126
 C        -6.9187111498        7.7818889188        0.7436398754
 O        -6.5369467854        7.3000108364        1.7925643296
 C        -6.3768178852        7.2241652616       -0.6244023751
 C        -7.5507810894        6.4298548873       -1.2103724292
 O        -8.5119974296        7.0373429097       -1.6949351246
 C        -7.8197352995        4.8942533042       -0.8050231718
 C        -9.2423959988        4.5270767184       -1.1651357388
 C        -9.6658300769        2.9645319325       -0.9389377513
 O        -8.9303728339        2.3155011143       -0.2050165710
 C       -10.9725568476        2.4226368785       -1.6167876134
 C       -11.1184219054        0.8677891327       -1.4484854520
 O       -11.2141804009        0.4774844353       -0.3139025731
 C       -11.2334084028       -0.1160603428       -2.6722167468
 C       -11.4472710027       -1.5603431977       -2.2344891610
 C       -10.1346327694       -2.2308267536       -1.7171693625
 O        -9.1201626687       -1.5241999477       -1.6628711311
 C       -10.0441944303       -3.7023776372       -1.2353106093
 C        -9.2672594848       -3.8077037776        0.1585237237
 O        -9.8160602031       -3.6453647234        1.2046403004
 C        -7.7194963214       -3.9631866479        0.0363011271
 C        -6.9422904892       -3.7334138258        1.2711730288
 C        -7.0766810174       -2.2393001459        1.6920118308
 O        -6.8742378814       -1.3726494623        0.8032135312
 C        -7.4276040091       -1.7183982251        3.1208011709
 C        -9.0766802992       -1.4115314362        3.1413227811
 O        -9.6528709169       -1.0194855207        2.1748798058
 C        -9.9510496660       -1.6561575485        4.3747630369
 C        -7.1088948192       -2.7098091919        4.2809282919
 C        -6.7531125364       -0.3793473066        3.4913752656
 C       -11.4447104532       -4.2250793158       -0.9597571955
 C        -9.3350504389       -4.5117185666       -2.3587094812
 C       -12.0693439038        2.9922284495       -0.6629651141
 C       -11.1947576141        2.9759814305       -3.0747574373
 C        -6.0851848073        8.3557310733       -1.6582176624
 C        -5.0737299284        6.4538511867       -0.2955527747
 C       -11.7092798795       11.5538771500        2.6153825878
 C       -10.9418052868        9.6212304929        3.9675049324
 C       -11.2045695808        7.3653410543       -3.5696309070
 C       -13.4368145720        8.3692192934       -4.3557936675
 H       -15.2946990790        5.8946912643       -1.9880834891
 H       -15.1146258289        6.4633643532       -3.7944476522
 H       -15.2873028110        7.5724278350       -2.3967603259
 H       -10.6613953747        8.6189200070       -1.2771648724
 H       -11.9410749419        7.7493871247       -0.5416703036
 H       -12.8557958711       10.2492231622        0.1077164893
 H       -11.1461201727       10.6451085105       -0.0968370168
 H        -9.2573769170        8.2692929534        2.0891343056
 H        -7.7304716921        9.1455840898        2.8281209737
 H        -7.0969571136        9.9262796707        0.6809671441
 H        -8.4095408357        9.0500456233       -0.2193856914
 H        -7.6122606317        4.7616613225        0.2627489001
 H        -7.0456301311        4.3351295855       -1.2617797599
 H        -9.3180381869        4.6245023143       -2.2336724140
 H        -9.9319273235        5.1909158920       -0.6620043745
 H       -10.4181042497       -0.0873934430       -3.4267036464
 H       -12.1411837378        0.1675087282       -3.2422549525
 H       -11.8065087728       -2.1094957476       -3.0816517909
 H       -12.1892996048       -1.5777941925       -1.4722323323
 H        -7.3902106256       -3.1962728858       -0.7361234615
 H        -7.4362285126       -4.9460952208       -0.3960916012
 H        -5.8991420468       -4.0387889086        1.2134420335
 H        -7.3086426660       -4.3132215362        2.1302555938
 H       -10.8616801097       -1.0990393255        4.2714733156
 H        -9.4717136348       -1.4988048225        5.3609051304
 H       -10.2411112706       -2.6944020359        4.2256037447
 H        -7.7340135020       -3.5512172766        4.3163991138
 H        -7.0915539748       -2.2164188176        5.2562341488
 H        -6.1203520663       -3.2316806865        4.0902151678
 H        -6.8305127349        0.3199247778        2.6298249433
 H        -5.7155817148       -0.5133053626        3.6523675374
 H        -7.2322900214        0.1950168704        4.3836373973
 H       -12.1501047009       -3.9332621979       -1.7205615768
 H       -11.9629241186       -4.0101273933        0.0166621555
 H       -11.5484876623       -5.2945408283       -1.0189837537
 H        -9.5715118373       -5.5727943304       -2.3139300339
 H        -8.2489124178       -4.2742977958       -2.4572936340
 H        -9.7845137638       -4.2119036068       -3.3032896669
 H       -13.0769192270        2.8583532356       -1.0569008675
 H       -11.8594748441        4.0494268404       -0.5325363847
 H       -11.9388178832        2.5470580888        0.3155203357
 H       -12.0924945869        2.6182801134       -3.5914887834
 H       -10.3416777144        2.7633163385       -3.7541427458
 H       -11.2803217587        4.0334402055       -3.1810512897
 H        -5.4838367586        9.1370640314       -1.2730810453
 H        -7.0114741316        8.8060677713       -1.9073793482
 H        -5.5872122913        8.0211765605       -2.5850307999
 H        -4.7239943552        5.8430725889       -1.2355719864
 H        -5.2214754236        5.8750360917        0.5942925386
 H        -4.2933032937        7.1661118328        0.0424530050
 H       -11.1689502631       12.3617007104        3.1242239675
 H       -12.6248238621       11.4274293418        3.2099092771
 H       -11.9996371820       11.9167024302        1.6384922916
 H       -11.8757319144        9.7687722254        4.4916438666
 H       -10.2573344817       10.1045780636        4.6457256808
 H       -10.7251825543        8.5468044452        3.8251757470
 H       -10.6141614488        7.0531663244       -2.7004771984
 H       -10.5923905533        8.2307627378       -3.8849622837
 H       -11.2549220835        6.4973472715       -4.1923291193
 H       -13.4620373359        7.6548599219       -5.1807698988
 H       -12.9881406218        9.1785311593       -4.8885326816
 H       -14.3451508555        8.7490911528       -4.0478426319
 Na       -8.8605550747       -0.0362001547        0.3105880989
