117

 C       -14.9396126747        6.5714698888       -2.5335676344
 C       -13.4636538788        6.5716130289       -2.6799224033
 O       -12.8607849171        5.5975120384       -2.1960721041
 C       -12.6697859402        7.7377301903       -3.2205069775
 C       -12.5985530979        8.8704620654       -2.0943981324
 O       -13.2351990563        9.8811694275       -2.1872370896
 C       -11.6739165401        8.5781624388       -0.8710306220
 C       -11.8095271973        9.7170938997        0.1494015059
 C       -11.6346844042        9.3143495907        1.6020098708
 O       -11.9489112753        8.2082635507        1.9723221773
 C       -10.9402529192       10.2607315488        2.6812286215
 C        -9.4573917116       10.4562262601        2.2916967692
 O        -9.0408719635       11.5365737111        1.9451674420
 C        -8.4859461195        9.2438956586        2.3129443340
 C        -7.8389632138        8.9996835521        0.9337414138
 C        -6.8760742847        7.7205055018        0.8775054683
 O        -6.5444737616        7.1000400911        1.8816557472
 C        -6.3735769705        7.3234996845       -0.5697610926
 C        -7.6670578803        6.5031547767       -1.1439991865
 O        -8.5275869055        7.1265859142       -1.6722583192
 C        -7.8276832995        4.9636174384       -0.9271404309
 C        -9.2791011480        4.5165579034       -1.2542438974
 C        -9.6412306225        3.0415067370       -0.9132347461
 O        -8.8954200777        2.3637276894       -0.2170158342
 C       -10.9976746625        2.3725911177       -1.6303759329
 C       -11.0226637319        0.8313172795       -1.5359173022
 O       -11.0679608195        0.3452069206       -0.4032012544
 C       -11.0296015102       -0.0714695311       -2.7263999503
 C       -11.2724707324       -1.5459123334       -2.3966533127
 C       -10.0868241911       -2.1533047081       -1.6512364651
 O        -9.0248579697       -1.5828556406       -1.5855606471
 C       -10.1339141849       -3.6971506545       -1.2295380471
 C        -9.2024769966       -3.7138920875        0.0801071130
 O        -9.7267647891       -3.5819449615        1.1804063282
 C        -7.6796364205       -3.8806795207       -0.0954450113
 C        -7.0703897229       -3.6803905433        1.2853375151
 C        -7.1351648707       -2.1288027372        1.7179700214
 O        -6.8698568877       -1.3205462982        0.8865787486
 C        -7.5531888138       -1.7840422435        3.1061546319
 C        -8.9961862093       -1.4605166283        3.0784399955
 O        -9.4705918400       -0.9161259344        2.0644222868
 C        -9.8181963794       -1.7099220686        4.3424372425
 C        -7.0572801141       -2.8143870734        4.1980030714
 C        -6.9689381701       -0.3322263514        3.4326800549
 C       -11.4802421227       -4.2557451080       -0.8700679518
 C        -9.5660355501       -4.4534420543       -2.4472603727
 C       -12.1463838317        2.9680322007       -0.7837527202
 C       -11.1499592838        2.7253268784       -3.0953227914
 C        -6.1026621225        8.4915519264       -1.5018416179
 C        -5.1401697360        6.4049308707       -0.5281042861
 C       -11.5793607039       11.6998865789        2.6310867670
 C       -11.0518657545        9.6249358035        4.0339325036
 C       -11.2220193481        7.3124487767       -3.6617663184
 C       -13.2503459423        8.3150528024       -4.5234605467
 H       -15.1452676102        5.6225818498       -2.0358835038
 H       -15.4204176016        6.7651046282       -3.4374232545
 H       -15.2631171022        7.2853343134       -1.7938434745
 H       -10.6389101456        8.3963541098       -1.2051216167
 H       -11.9977452439        7.6044305609       -0.5186355055
 H       -12.8020211719       10.1477555218        0.1119446488
 H       -11.1396992196       10.5704978738       -0.1118297072
 H        -9.1458513935        8.3576913695        2.4696633677
 H        -7.7125923493        9.4481675338        2.9756799812
 H        -7.2017570769        9.8722572184        0.5909611943
 H        -8.5631353956        8.7948314708        0.1853150816
 H        -7.5039223590        4.8479017442        0.1210652958
 H        -7.0150555881        4.4705038242       -1.5570891279
 H        -9.5479399926        4.7164156525       -2.3248472180
 H       -10.0343611994        5.0894451896       -0.6632737004
 H       -10.1139829173       -0.0003710352       -3.2714251399
 H       -11.7732902064        0.2903548698       -3.4270803969
 H       -11.5642147879       -2.1713189096       -3.2797993782
 H       -12.1222737402       -1.6299816545       -1.6287434165
 H        -7.2921732910       -3.1449486245       -0.7638778476
 H        -7.4648443061       -4.8532545738       -0.5351468269
 H        -5.9746106036       -3.8685112852        1.3199559583
 H        -7.4894894836       -4.3789504217        2.0643381446
 H       -10.5281508263       -0.8893648924        4.5873533811
 H        -9.0827491280       -1.7134168504        5.1215778859
 H       -10.3560907424       -2.6359986667        4.3219228795
 H        -7.5292676707       -3.8168329923        4.0042510182
 H        -7.3234351931       -2.4626843272        5.1932466020
 H        -6.0054421541       -2.9776261745        4.1677107159
 H        -7.1497377674        0.3306511617        2.5798739154
 H        -5.8732690093       -0.2818700119        3.6736211289
 H        -7.5238396645        0.0726318913        4.1817109946
 H       -12.1268525553       -4.2681697019       -1.7537872656
 H       -12.0239743223       -3.8208423132       -0.1035622107
 H       -11.4018641201       -5.2790728138       -0.5154177205
 H        -9.4475539914       -5.4964180820       -2.1555772804
 H        -8.6325837665       -4.0383157397       -2.8284821105
 H       -10.2964841542       -4.4536939902       -3.2820410011
 H       -13.0554987975        2.3432227432       -0.7259270692
 H       -12.2971880294        3.9888932032       -1.0607272248
 H       -11.7599027442        3.0092918098        0.2457192781
 H       -12.1297628215        2.5864360042       -3.4789080265
 H       -10.4572040082        2.2971759575       -3.7641253275
 H       -10.9832750062        3.8005108842       -3.3055090406
 H        -5.2817813892        9.1852329094       -1.0898215583
 H        -7.0185036590        9.1122874513       -1.7497441330
 H        -5.6978001012        8.1359171169       -2.4639571419
 H        -4.8393907105        6.1846440052       -1.4774495178
 H        -5.4003606406        5.5719817713        0.0997690669
 H        -4.3415946857        6.8942505559       -0.0862862733
 H       -11.1630974158       12.4309732582        3.2879982362
 H       -12.6204507384       11.6235093541        2.9190070334
 H       -11.5463963199       12.1118258707        1.6016905239
 H       -12.1349794080        9.4382139244        4.2083841946
 H       -10.8311985069       10.2374096892        4.9278896665
 H       -10.5890544891        8.6676512166        3.9463194559
 H       -10.6298067201        6.7461252473       -2.9154052994
 H       -10.6185766336        8.1676693477       -3.8596242675
 H       -11.3595719982        6.5782816122       -4.4712707110
 H       -13.5454279083        7.5759140615       -5.2808332191
 H       -12.5475147763        8.9188490921       -5.0985391214
 H       -14.2112542379        8.9573681098       -4.3081162247
 Na       -8.7652940642        0.0533862322       -0.0399360161
