117

 C       -14.9163072081        6.5414457436       -2.6579153908
 C       -13.3627452776        6.6134081626       -2.6143068354
 O       -12.7435911318        5.6434770897       -2.1367040492
 C       -12.5897401793        7.8638895903       -3.2241203227
 C       -12.6150048828        9.0673529859       -2.1764970873
 O       -13.3062204032       10.0454480458       -2.2927048570
 C       -11.6793501602        8.8732977700       -0.9910893454
 C       -11.8513467928        9.8956189562        0.1145337647
 C       -11.5104149703        9.2444484611        1.5008351714
 O       -11.5706996657        8.0416464493        1.6868772514
 C       -10.9190173361       10.2171144447        2.5736976828
 C        -9.4884130866       10.3650591199        1.9887973738
 O        -9.0027492548       11.4482509548        1.6681854506
 C        -8.6560496761        9.0686720073        1.9267015074
 C        -7.7580540990        9.1144405188        0.6366426865
 C        -6.8356991805        7.8796729718        0.7024955218
 O        -6.6009019098        7.3749751178        1.8029221692
 C        -6.3769719650        7.1790293618       -0.6205559173
 C        -7.6525410468        6.3501206927       -1.1018750579
 O        -8.4563187033        6.9536072687       -1.7418413158
 C        -7.8294983167        4.8811318743       -0.7208643962
 C        -9.1823384389        4.4206858242       -1.2360608159
 C        -9.5806352054        2.9527522429       -0.9508075983
 O        -8.8725945525        2.1760182368       -0.2752735739
 C       -11.0006352846        2.5171139871       -1.5220060614
 C       -11.1584425846        0.9271326515       -1.4046175539
 O       -11.1231798090        0.5483010182       -0.2537954768
 C       -11.3517299834       -0.0949562525       -2.5358418272
 C       -11.4221092008       -1.6158843704       -2.1879735614
 C       -10.1044329332       -2.1110000964       -1.6444085777
 O        -9.0965431661       -1.4096378638       -1.6696626188
 C       -10.0821239653       -3.6971191107       -1.2393788862
 C        -9.2420142963       -3.8046692528        0.1260242928
 O        -9.7678335799       -3.7267499214        1.2212386998
 C        -7.7207705874       -4.0336116648        0.0512934821
 C        -7.0519351557       -3.6302820844        1.3962911014
 C        -7.1877667924       -2.1497456799        1.6961918497
 O        -6.9721621087       -1.3809649337        0.8071754616
 C        -7.5446530522       -1.6378420709        3.1666896036
 C        -9.1065854670       -1.4336263101        3.2029162807
 O        -9.6141272151       -0.9846921782        2.1693131217
 C        -9.8461457173       -1.7613431982        4.4388480693
 C        -7.2278693285       -2.7071537300        4.2250987145
 C        -6.6892581851       -0.3757625754        3.4852791814
 C       -11.4670627399       -4.2691956037       -1.0694530859
 C        -9.3477743568       -4.5468554148       -2.3714510172
 C       -12.1206998165        3.0827697339       -0.5830428463
 C       -11.1569552458        2.9901427559       -2.9525753794
 C        -6.0683825256        8.2582325878       -1.6949544907
 C        -5.1190165513        6.3281651201       -0.3799730095
 C       -11.6624564947       11.5373309448        2.6034151844
 C       -10.8841779818        9.5157345302        4.0297303425
 C       -11.1791466010        7.5203030220       -3.7055403028
 C       -13.3380052974        8.4260947843       -4.5168701370
 H       -15.3507960530        6.0292879518       -1.7894662408
 H       -15.2235038630        6.1862029034       -3.6645791463
 H       -15.2540972777        7.5794637199       -2.5830589636
 H       -10.6971579046        8.7188211373       -1.4643801038
 H       -11.9045864627        7.8732446106       -0.6499204748
 H       -12.9123276862       10.2248616676        0.0882407648
 H       -11.1856159427       10.7600039218       -0.0897885255
 H        -9.4008288624        8.2285313005        1.8502902381
 H        -8.0417516656        9.0966767413        2.8227695355
 H        -7.1738057590       10.0350496002        0.5278303672
 H        -8.4019197910        9.0495289787       -0.2275115653
 H        -7.7475663248        4.6835147949        0.2814794400
 H        -6.8430700813        4.4655451821       -1.1035987955
 H        -9.3729032572        4.6095642217       -2.2845274196
 H        -9.9076640711        4.9166125996       -0.5445477391
 H       -10.4776353389        0.0531221140       -3.1827674190
 H       -12.2439487420        0.1957001112       -3.1880108629
 H       -11.6955667866       -2.1860894352       -2.9942109461
 H       -12.1844803892       -1.7261884982       -1.3536056498
 H        -7.2270836688       -3.5886609509       -0.8197083616
 H        -7.5709887750       -5.1317328770       -0.0470498254
 H        -6.0245684474       -3.7944461640        1.3359441044
 H        -7.2511483287       -4.2498217009        2.2954922288
 H       -10.8841129796       -1.3212814293        4.3200469031
 H        -9.3294726047       -1.3721969126        5.3475135978
 H        -9.9745111461       -2.7890407713        4.4601539379
 H        -7.7849624752       -3.6352702484        4.2692831013
 H        -7.1950423601       -2.2807703142        5.2365107079
 H        -6.2282605176       -3.0997411735        3.9862385588
 H        -6.8145922612        0.4054021231        2.6692049776
 H        -5.6672736992       -0.7161792276        3.3278084730
 H        -6.7704573418        0.1062721959        4.4044031350
 H       -12.1428471326       -4.1755526253       -1.9886969451
 H       -12.0946328935       -3.8830943229       -0.2209809370
 H       -11.5556207178       -5.3742591867       -0.9332490684
 H        -9.2489014546       -5.5736102156       -2.1789792445
 H        -8.3830884686       -3.9954643708       -2.5482603191
 H        -9.9034892073       -4.5517808797       -3.3031838392
 H       -13.0871257013        3.0883299667       -1.1572957765
 H       -11.9615718023        4.0603534336       -0.2349823216
 H       -12.1580670989        2.4288636608        0.3072628163
 H       -11.7436127632        2.3614103179       -3.5878979857
 H       -10.1899420614        3.0515788296       -3.4568462552
 H       -11.5846719525        4.0043884846       -3.1723898887
 H        -5.4912924837        9.0744011916       -1.3325510141
 H        -6.9569991516        8.6989685915       -2.0068184688
 H        -5.5521823674        7.8691794946       -2.5090714966
 H        -4.9488892958        5.6338313780       -1.2538970924
 H        -5.4336543174        5.7585970512        0.5758259968
 H        -4.1982271843        6.8671631371       -0.0118645158
 H       -11.1299374317       12.2425899508        3.1593272506
 H       -12.6495102533       11.4988834070        3.0604485668
 H       -11.7768940819       11.9652751425        1.5638897278
 H       -11.7770646235        9.7147762715        4.6464527886
 H       -10.1005125547       10.0410853440        4.5961009234
 H       -10.6517159498        8.5111273258        3.9814329892
 H       -10.4664770462        7.1918320455       -2.9037123999
 H       -10.7119747838        8.4122122265       -3.9851381571
 H       -11.1723411884        6.7495396968       -4.4407947033
 H       -13.2578506598        7.7531870645       -5.3348383555
 H       -12.8586100939        9.2285986799       -4.9253123352
 H       -14.3260676442        8.9079047090       -4.3287368204
 Na       -8.8740209544       -0.0800580528        0.4594507705
