117

 C       -14.8314518732        6.6796909312       -2.6820755202
 C       -13.3275365852        6.7820827605       -2.7493771456
 O       -12.5700105644        6.0343746094       -2.1881878353
 C       -12.6594695715        7.9852645518       -3.4333468164
 C       -12.6472251583        9.0594650497       -2.2878281809
 O       -13.4163495551        9.9891363267       -2.3223187804
 C       -11.6784345892        8.8667248698       -1.0918687180
 C       -12.0301099409        9.8105854017        0.0631564075
 C       -11.5445253804        9.2389910431        1.4228959326
 O       -11.4982984454        8.0236331346        1.6273917025
 C       -10.8942845400       10.2333492088        2.5439924894
 C        -9.4779013805       10.4054560315        1.8625323933
 O        -9.1071468953       11.5092191034        1.4663305272
 C        -8.5504985381        9.1634384873        1.7809658734
 C        -7.6791167934        9.0223648624        0.5595860320
 C        -6.8191262382        7.7839770676        0.6562541899
 O        -6.4619378836        7.3941022088        1.7273227514
 C        -6.4224449318        6.9757911193       -0.7239159710
 C        -7.6305484911        6.2796034336       -1.1229551078
 O        -8.5552636737        6.8106287885       -1.8043960649
 C        -7.8697430860        4.8349685559       -0.5787839503
 C        -9.1676301942        4.3429598163       -1.2455031473
 C        -9.5175992036        2.9005901827       -0.8658964863
 O        -8.6959972160        2.1326936551       -0.4859117067
 C       -10.9683643807        2.4713151566       -1.3203432109
 C       -11.1258000495        0.9627425563       -1.1541741191
 O       -11.0303566481        0.4024600929       -0.0674753484
 C       -11.4001398705        0.0407267653       -2.3724143590
 C       -11.4423937673       -1.4486686721       -1.9610686160
 C       -10.0601619008       -2.1157151866       -1.6156924737
 O        -9.0325795224       -1.4603998406       -1.4417590678
 C       -10.0093725471       -3.6330342289       -1.2962192133
 C        -9.2649549669       -3.7982530595        0.0850249909
 O        -9.8718663669       -3.8061172245        1.1161440647
 C        -7.7756696054       -3.9704901863        0.0173187154
 C        -7.1615628461       -3.6845734923        1.4201048248
 C        -7.3080825110       -2.2307424935        1.7702034415
 O        -7.1893541159       -1.4051666202        0.8172804474
 C        -7.6171959474       -1.6961961008        3.2578233063
 C        -9.1865668511       -1.4540907234        3.3601800297
 O        -9.7458301436       -0.8049619678        2.5211083346
 C        -9.8397827969       -1.8658214601        4.6708045150
 C        -7.0412797905       -2.7500001334        4.2408148906
 C        -6.8600513826       -0.3602622707        3.4184613512
 C       -11.4351349101       -4.2470158148       -1.0160950747
 C        -9.2270640628       -4.2982288935       -2.5044157151
 C       -12.0515275784        3.2173873636       -0.5041922763
 C       -11.1482660575        2.8812180773       -2.7856158723
 C        -5.9536565199        8.0476642899       -1.7613545468
 C        -5.2404485456        6.0408410506       -0.3703201217
 C       -11.5686337114       11.5422664003        2.7304075048
 C       -10.8227296066        9.4510346590        3.8786250437
 C       -11.1505660936        7.6156216856       -3.7367643009
 C       -13.4302732837        8.4208863310       -4.6369422440
 H       -14.9712018723        6.2161230817       -1.7336252904
 H       -15.0910523794        5.9737327598       -3.4605073432
 H       -15.4154681541        7.5792081172       -2.7683749357
 H       -10.7086654473        8.8975231097       -1.5570464523
 H       -11.7929688757        7.8118745077       -0.7799896391
 H       -13.1254510131        9.8168578345        0.1539229675
 H       -11.6561908933       10.7956601717       -0.1630125020
 H        -9.2053034426        8.3163768620        1.8537760148
 H        -8.0327262392        9.2634796233        2.7629622774
 H        -6.9724940315        9.8398013841        0.4367282283
 H        -8.3526358461        9.0455831645       -0.3329623776
 H        -8.0327363342        5.0413044114        0.5725377067
 H        -7.0601782412        4.1415093723       -0.5133746469
 H        -9.0043519609        4.3254845903       -2.3460504795
 H       -10.0215068087        4.9133314654       -0.9063496452
 H       -10.6944692971        0.1803613618       -3.2092524615
 H       -12.3630208521        0.2310644877       -2.7706698084
 H       -11.7939510857       -1.9950162278       -2.9539936454
 H       -12.2000881269       -1.5538252303       -1.2076454333
 H        -7.3533547964       -3.4172772949       -0.8194398576
 H        -7.5424109733       -4.9953938946       -0.1626987099
 H        -6.1029028125       -4.1211814435        1.5364549834
 H        -7.6560994174       -4.2843948212        2.1728222465
 H       -10.8610801699       -1.6218366195        4.6405843859
 H        -9.3301639904       -1.2259309579        5.3783297942
 H        -9.7194510768       -2.9593273434        4.9624260663
 H        -7.4762795319       -3.7426936005        4.1711225967
 H        -7.1540064929       -2.5135263123        5.3011392805
 H        -5.9758087773       -2.9259250291        4.0508447589
 H        -7.2335627266        0.4347746070        2.8497688091
 H        -5.8299511610       -0.4596643338        3.2049932436
 H        -6.8532019771       -0.0695390257        4.5303956460
 H       -12.0762449230       -4.5412253343       -1.7814367819
 H       -12.0094710313       -3.5054140747       -0.4602816638
 H       -11.4595858331       -5.1110940140       -0.4032099365
 H        -8.7933223557       -5.2647038586       -2.1977653789
 H        -8.4885334183       -3.6273620903       -2.8633592062
 H        -9.8847374003       -4.6379876435       -3.2836575417
 H       -12.9635579985        3.0251549323       -1.0270855147
 H       -12.0017611658        4.3455846013       -0.6210463684
 H       -12.0695888946        2.9449429718        0.5449680004
 H       -12.1251807520        2.4549417525       -3.0852418055
 H       -10.4638630135        2.5385173590       -3.5607842614
 H       -11.2868613891        3.8994615142       -2.9743218395
 H        -5.2277383832        8.7739320852       -1.3901208369
 H        -6.8054761943        8.7009678404       -2.0438970230
 H        -5.5181589616        7.5721367720       -2.6989803142
 H        -5.0332620405        5.3752670157       -1.1982935809
 H        -5.4127320237        5.4948558278        0.4610382755
 H        -4.4333455159        6.6557094945       -0.1453798555
 H       -11.1729765596       12.0049485164        3.6770427214
 H       -12.6502296435       11.5822509025        2.7751390314
 H       -11.2747787658       12.1755292443        1.9525003195
 H       -11.8236585363        9.3460099176        4.2694743195
 H       -10.1806046758        9.9627007151        4.5911712143
 H       -10.3766356459        8.4062240649        3.7448190413
 H       -10.6920421614        7.0263658954       -2.9942306557
 H       -10.4243229568        8.4534070295       -3.9017829066
 H       -11.1285405458        7.0107876889       -4.6712688462
 H       -13.3775184259        7.5878800072       -5.3891768792
 H       -13.0948859181        9.3229055088       -5.2526748776
 H       -14.3815026456        8.7716262152       -4.3715956287
 Na       -8.8668984057        0.0449696257        0.3343825070
