117

 C       -13.9360750179        4.0997188305       -0.2513849616
 C       -13.3173981236        2.7494837623       -0.5686746286
 O       -12.4963998878        2.7783393111       -1.4906457596
 C       -13.6005729425        1.5170518509        0.3591115739
 C       -12.3710118054        0.5632855251        0.2739726932
 O       -11.8219255273        0.3458182445       -0.8248536091
 C       -11.7342735845       -0.1781289104        1.5036147922
 C       -10.5179295115        0.5646913805        2.2168886376
 C        -9.3988806761       -0.4084281531        2.7612376507
 O        -9.3771072850       -0.8315803864        3.8828506164
 C        -8.2842551106       -0.9394778583        1.7600216859
 C        -8.2298852478       -0.1962618826        0.3589216443
 O        -8.2705625884        1.0902978061        0.2524742593
 C        -8.7760295798       -1.0484071507       -0.9462726775
 C        -7.8524132763       -0.9871753984       -2.2058223002
 C        -8.5115233876       -0.5544997907       -3.5201186509
 O        -9.6637506102       -0.1515562805       -3.4300564764
 C        -7.7773382617       -0.4001895837       -4.8592633180
 C        -6.9663809845        0.9952491448       -4.5342413220
 O        -6.1480989712        0.9151604766       -3.6834725901
 C        -6.9458366202        2.2125646573       -5.6134103076
 C        -8.3611441694        2.9653316725       -5.9343260740
 C        -9.0153955333        3.3549211366       -4.6635109615
 O       -10.0153475646        2.7350850853       -4.2140282235
 C        -8.8835134965        4.7748208703       -4.1172919182
 C        -9.2847812494        4.9580907838       -2.5203464418
 O       -10.1661802667        4.2418142850       -2.2055833031
 C        -8.4494928483        5.8442151501       -1.5587437413
 C        -8.5119999961        5.3375903362       -0.0444437042
 C        -7.8835086314        6.4751064825        0.7981759776
 O        -7.6957409754        7.5252161445        0.2718060379
 C        -7.4809865080        6.2921491099        2.3126923775
 C        -8.8761126398        6.2121417271        3.0307247121
 O        -9.4416007656        5.1548272148        3.0013498549
 C        -9.2449981307        7.4507595936        3.8491350316
 C       -10.7924007117        7.6784124350        3.8309113481
 C       -11.1017705129        9.2674853209        3.7456074479
 O       -10.1302949993        9.9555284503        4.1568150597
 C       -12.5774820578        9.6294696973        3.1534956689
 C       -13.6255289670        8.6897789823        3.5936017989
 O       -14.0414174230        7.8851143367        2.7634235208
 C       -14.0597218407        8.7149849180        5.0768229022
 C       -12.8431410918       11.0849183071        3.6491504131
 C       -12.2796442593        9.5985570057        1.6214964188
 C        -6.6190870701        5.0089381769        2.5591154714
 C        -6.6720181527        7.4978638214        2.7190819869
 C        -7.6864143098        5.5919547029       -4.4599310778
 C       -10.1556694586        5.4498917367       -4.7379158087
 C        -6.6872603706       -1.5253886383       -5.3064989559
 C        -8.8847393513       -0.3924135995       -6.0535647639
 C        -6.9569233772       -0.4802873325        2.5242002562
 C        -8.3068060548       -2.6106780962        1.6281353796
 C       -14.1627001499        1.9303201062        1.7220459758
 C       -14.6418303219        0.8361964032       -0.4634518408
 H       -15.0308985958        4.1571232643       -0.4312615360
 H       -13.5942739727        4.8216566575       -0.9998548640
 H       -13.6276463001        4.5538393460        0.6735628073
 H       -11.5248967838       -1.1504617197        1.1667212661
 H       -12.4524216037       -0.4620061090        2.2558458637
 H       -11.0435570165        1.0147437341        3.0527603384
 H       -10.2369305967        1.3294945075        1.3982739533
 H        -9.7912095865       -0.7092086911       -1.2356673130
 H        -9.0325506958       -2.0633818306       -0.6309882667
 H        -7.1762414055       -1.8816191359       -2.2099353095
 H        -7.1580394912       -0.1270086669       -1.8914589501
 H        -6.6219869015        1.9330191286       -6.6047168109
 H        -6.2202835777        2.9653148042       -5.3221525291
 H        -8.8992219090        2.2840001467       -6.4098351861
 H        -8.0730628663        3.7200456145       -6.6045120597
 H        -8.8393936583        6.9487718723       -1.6334648532
 H        -7.4919348815        5.9513721045       -1.8906466284
 H        -7.9343205211        4.4665743472        0.1284626434
 H        -9.5577686919        5.4283983790        0.3199841275
 H        -8.7218111292        8.3721673670        3.5955899350
 H        -8.9083415614        7.2361966281        4.8427463819
 H       -11.2997134861        7.2550266549        4.6821490274
 H       -11.1321592770        7.1356126793        2.9255464373
 H       -14.4605103742        7.7548703246        5.5020375114
 H       -14.7979783161        9.3615693409        5.1574898906
 H       -13.1253250096        8.9039548003        5.6834816179
 H       -13.8203247585       11.3568715688        3.2592093743
 H       -12.0055814944       11.6855948746        3.2268220774
 H       -12.8389472871       10.8996232411        4.7419370044
 H       -12.5676026570       10.5228028972        1.1458950736
 H       -12.9237477666        8.7359003994        1.2661770655
 H       -11.3362354746        9.4309308105        1.3587974898
 H        -6.1893143006        5.1134599811        3.5731520844
 H        -5.7295072408        4.9008760507        1.8411054052
 H        -7.0963124684        4.0782670192        2.5161979283
 H        -6.5940016641        7.6064557248        3.7568735344
 H        -6.9898010400        8.4253643429        2.3669172419
 H        -5.6656203180        7.3402797206        2.3687408923
 H        -7.4068645517        5.5673909317       -5.5431717178
 H        -6.7949626197        5.4035919090       -3.8042662969
 H        -8.0650039385        6.5741829480       -4.3598646555
 H       -10.3566983059        6.4966150823       -4.4070197557
 H       -11.0342110290        4.9393291864       -4.3792439756
 H       -10.1655066471        5.3744191365       -5.8374516740
 H        -5.9603149104       -1.5405319498       -4.5560372254
 H        -6.2071601052       -1.1260887495       -6.1495906974
 H        -7.0224165363       -2.5202110799       -5.5054309939
 H        -8.7850876048       -1.3294491179       -6.6454808862
 H        -8.7282779362        0.4289417565       -6.7479204870
 H        -9.8819138412       -0.2447599061       -5.6731982373
 H        -6.0739082606       -1.1175842512        2.2338288925
 H        -7.0937460301       -0.4543086833        3.6631041931
 H        -6.6111444303        0.5212693088        2.1958116287
 H        -8.2034659461       -3.0686671673        2.6447338108
 H        -7.2752312039       -2.9243026426        1.1727238245
 H        -9.1022985331       -3.0169016990        1.0635202150
 H       -13.5556340758        1.7334517256        2.5529609355
 H       -15.1201049204        1.3825437422        1.8513046651
 H       -14.3076722100        3.0049677915        1.9058905779
 H       -14.8579467372        1.3404993543       -1.4374739588
 H       -15.6500750341        0.8698089707        0.0473050185
 H       -14.3692268184       -0.2080988687       -0.5036062132
 Na      -10.5000978195        1.7124340746       -2.1781595484
