117

 C       -14.7207407279        6.5905678197       -2.8197097774
 C       -13.1905311083        6.8037106547       -2.9353926792
 O       -12.2855529247        6.0439118116       -2.5500125746
 C       -12.6141608617        8.2238304420       -3.5379555124
 C       -12.8261285338        9.2543435988       -2.4018498749
 O       -13.7080255399       10.0765297596       -2.3153009104
 C       -11.6946335407        9.1989412683       -1.3380472288
 C       -12.1268410574        9.8391832701       -0.0260003272
 C       -11.5159331408        9.1625100710        1.2351627320
 O       -11.5746320084        7.9886317204        1.4325236498
 C       -10.6967748243       10.0646012031        2.2430695877
 C        -9.3428990223       10.3012238294        1.5217278355
 O        -9.1855748053       11.1575751361        0.7078270077
 C        -8.1981656246        9.3238000184        1.7902463145
 C        -7.4568729524        8.9710958473        0.5449010155
 C        -6.5535713225        7.6895803803        0.6585512593
 O        -6.0220262642        7.3108760791        1.6846566775
 C        -6.2054785342        7.0022550460       -0.6553676939
 C        -7.6296142137        6.3309746819       -1.2011370774
 O        -8.2639942053        6.9725499581       -1.9551640114
 C        -8.0697602871        4.9740458420       -0.7076856750
 C        -9.2275254632        4.3232501229       -1.5823944766
 C        -9.7031133373        2.9276902391       -1.0339653699
 O        -8.9494821766        2.2088230059       -0.3682062677
 C       -11.2109281425        2.5170487074       -1.1564039490
 C       -11.3287797746        0.9031208451       -0.9198466683
 O       -11.2196384805        0.5318549631        0.2147367513
 C       -11.6714713549       -0.0687742938       -2.0340558289
 C       -11.6444459889       -1.5622359390       -1.6215067461
 C       -10.2081453662       -2.1679276777       -1.2758634815
 O        -9.2216356873       -1.4863685468       -1.0932227026
 C       -10.0358886717       -3.8013317963       -1.3948119180
 C        -9.3678848747       -3.9245871166        0.0226895018
 O       -10.0590357408       -4.0279446875        1.0315211091
 C        -7.8389043603       -4.0348299467        0.2202067706
 C        -7.3847889488       -3.6869154146        1.6056720542
 C        -7.2839156023       -2.1491080597        1.8961796206
 O        -7.3138344304       -1.3231219034        0.9966563826
 C        -7.4031163483       -1.7122128318        3.3378357947
 C        -9.1217184252       -1.4498739520        3.5209452909
 O        -9.6900671243       -0.6878802585        2.8083522165
 C        -9.8220104054       -2.1889885063        4.6586182010
 C        -6.9587651995       -2.7406199485        4.4007437566
 C        -6.5955983826       -0.3931891290        3.6080692942
 C       -11.2540114007       -4.6520550530       -1.3324833708
 C        -9.0663040295       -4.2273283869       -2.5436412501
 C       -11.9964517986        3.2376277579        0.0087488534
 C       -11.7594595719        3.0812033953       -2.4956971859
 C        -5.6303305730        8.0621028624       -1.6573298291
 C        -5.2021913175        5.8448935899       -0.3563697080
 C       -11.3447255871       11.4798343453        2.4751073133
 C       -10.6538706242        9.3572054759        3.6149269592
 C       -11.1433698732        8.0067952366       -3.9430214702
 C       -13.4114294610        8.6028731574       -4.8239986860
 H       -14.9057856834        5.5365396091       -2.8699572213
 H       -15.2012787936        6.9793235822       -3.7260110044
 H       -15.0876635803        7.0780762260       -1.9589288432
 H       -10.8977035778        9.7114205131       -1.8922881644
 H       -11.4118399203        8.1530203996       -1.1294758146
 H       -13.1987743898        9.6169296601        0.0780574373
 H       -12.0284029145       10.9088864486       -0.0313156914
 H        -8.4641831371        8.4825353605        2.3939177752
 H        -7.5733791143        9.7758657913        2.5776013784
 H        -6.8184694951        9.7458357207        0.1801758882
 H        -8.2046844510        8.7843269341       -0.2836336467
 H        -8.5099777555        5.1290751584        0.2842766362
 H        -7.1242926868        4.3589113626       -0.5115706726
 H        -8.9511288439        4.1746343357       -2.6401442857
 H       -10.1063501282        4.9755493594       -1.4355254073
 H       -10.9071981804        0.0146959134       -2.7877507276
 H       -12.5873886574        0.1631951419       -2.5696539702
 H       -12.0622829207       -2.1413757084       -2.3900287251
 H       -12.2771042881       -1.7497414640       -0.6659604640
 H        -7.2860647969       -3.4186181239       -0.4767626276
 H        -7.6232452180       -5.0649626990       -0.0049891680
 H        -6.3839505841       -4.0723178139        1.8363521475
 H        -8.0566854172       -4.1279886211        2.4417973599
 H       -10.8097034868       -1.6674743629        4.7438334510
 H        -9.2599137936       -2.1623816549        5.6110037659
 H        -9.9512700049       -3.1711151597        4.3725900934
 H        -7.5100887295       -3.6402022512        4.4328596244
 H        -6.9768407468       -2.4338573883        5.4368681688
 H        -5.8847944598       -2.9820215666        4.3244509134
 H        -6.9165264443        0.3193978686        2.8022289346
 H        -5.5150907575       -0.5528815981        3.4664547937
 H        -6.6771122854        0.0440821163        4.5385952177
 H       -11.7805767271       -4.6196838380       -2.2960536947
 H       -12.0889527325       -4.3977053144       -0.7406138184
 H       -11.0117088048       -5.6699650836       -1.1198858614
 H        -8.7172575080       -5.2053605992       -2.3539285441
 H        -8.1459018831       -3.5673801862       -2.5577499220
 H        -9.5484500955       -4.1154088871       -3.4904642445
 H       -13.1227971244        3.1750179785       -0.0108158529
 H       -11.7822739774        4.2803085292       -0.0829422972
 H       -11.6249431801        2.8161394470        0.9719151587
 H       -12.6987097457        2.7206770214       -2.8303804865
 H       -11.1315636907        2.7645258793       -3.3274389941
 H       -11.7522149987        4.1937343485       -2.5282482296
 H        -4.7608248726        8.4983386387       -1.1194504688
 H        -6.2611177501        8.8771085014       -2.0002797290
 H        -5.2761085803        7.6272063195       -2.5832165493
 H        -5.1342575051        5.1662353533       -1.1044451619
 H        -5.4804603167        5.2817138991        0.5224171080
 H        -4.2560795503        6.2427363592       -0.2179298441
 H       -10.8043497946       11.8950574270        3.2651817556
 H       -12.3940214534       11.4963467516        2.7520054432
 H       -11.2189053218       12.2080156334        1.6374240104
 H       -11.5802076110        9.5281505640        4.1813002371
 H        -9.7315916187        9.5978326686        4.1517732286
 H       -10.6058491328        8.3128917563        3.5163831504
 H       -10.6162905567        7.4091967985       -3.1470827406
 H       -10.5891904647        8.8450388635       -4.2506069334
 H       -11.0277398073        7.4063758847       -4.8021612390
 H       -13.4407192467        7.7273506961       -5.5265093354
 H       -12.9577126561        9.4546930073       -5.2849226076
 H       -14.5573479050        8.7787483339       -4.6313334396
 Na       -9.1535870718        0.1899509785        0.7534478042
