117

 C       -14.7936519261        6.6790774892       -2.7616475048
 C       -13.1697316227        6.8258758810       -2.8014666304
 O       -12.4537134805        6.0315506086       -2.2672796093
 C       -12.5803841331        8.1272950900       -3.5170607874
 C       -12.7424598893        9.1647669798       -2.3497086503
 O       -13.6212832913        9.9997304872       -2.4106363395
 C       -11.7349292369        9.1201479162       -1.1561300882
 C       -12.2307631348        9.8733277491        0.0879948681
 C       -11.5672488868        9.1945374870        1.3154171150
 O       -11.6560618791        7.9807336774        1.4598767678
 C       -10.8124279800       10.0497988985        2.3687484106
 C        -9.3529193014       10.3361204643        1.7086666781
 O        -9.1132560912       11.3397832298        1.0753415287
 C        -8.2147590386        9.3339796116        1.9006616326
 C        -7.5673372566        8.9760558901        0.5364006425
 C        -6.6897477477        7.7631003977        0.7014014750
 O        -6.2556683341        7.3821978527        1.7528092335
 C        -6.2186999405        6.9980373677       -0.6930063650
 C        -7.6075543914        6.3848103515       -1.1201197380
 O        -8.3677308303        6.9449703231       -1.9292629367
 C        -8.0471484428        5.0128428682       -0.5569320330
 C        -9.2287384592        4.3944506426       -1.3681123894
 C        -9.5046444017        2.8917364934       -1.0387252908
 O        -8.7357673229        2.1767607776       -0.4805227574
 C       -10.9984024176        2.4547012327       -1.2432698686
 C       -11.1455850519        0.8859912801       -0.9971077733
 O       -11.2442883310        0.4833728447        0.1550480244
 C       -11.3743721188       -0.0621246303       -2.2338888262
 C       -11.6044350852       -1.5053719682       -1.7091531812
 C       -10.2210281249       -2.1510438118       -1.5078516229
 O        -9.2268059648       -1.4613431076       -1.4052444037
 C       -10.0607854124       -3.7484821494       -1.4319089038
 C        -9.2509714094       -3.8723427929        0.0674987570
 O        -9.8725755382       -3.8649787692        1.0926902736
 C        -7.7830881923       -3.9891588460        0.1548961139
 C        -7.2236207594       -3.6988478867        1.5672746528
 C        -7.3863840545       -2.1978119893        1.8880069538
 O        -7.2974912256       -1.4009705844        0.9626553487
 C        -7.5390412574       -1.7253049259        3.3156333904
 C        -9.0540099226       -1.4082526693        3.5273080948
 O        -9.6850679508       -0.7129580541        2.7336457955
 C        -9.8094089068       -2.0700176210        4.7444550889
 C        -7.0160986020       -2.6706301385        4.3854131660
 C        -6.8120603399       -0.3181026197        3.4587964547
 C       -11.4548952810       -4.4870984534       -1.3535352405
 C        -9.2588549107       -4.1867292287       -2.6365587786
 C       -11.8716820024        3.2508955413       -0.1770790701
 C       -11.5541323888        2.7196225774       -2.6506947294
 C        -5.7917952393        7.8691060716       -1.8462901372
 C        -5.1580532196        5.8552502561       -0.4158182221
 C       -11.4959933343       11.4237924019        2.4270107798
 C       -10.6968939299        9.3895464968        3.7057738539
 C       -11.0967460722        7.8972771495       -3.9303402264
 C       -13.4567550921        8.5491134974       -4.7164232766
 H       -15.1950158415        5.7406648444       -2.2873469518
 H       -15.1473158205        6.7350446779       -3.7649933926
 H       -15.1230579390        7.6328108790       -2.2694588032
 H       -10.7824870888        9.4519782166       -1.5809055630
 H       -11.6225709113        8.0710075594       -0.9069398637
 H       -13.3202545910        9.8670972149        0.2591826821
 H       -11.8555959548       10.9257175598       -0.0375604040
 H        -8.6442978066        8.4467672804        2.4472866293
 H        -7.4745202022        9.6210273774        2.6168584605
 H        -6.9625655944        9.8362822631        0.1719141005
 H        -8.2675566551        8.7697749075       -0.2176201298
 H        -8.4157261645        5.2176625201        0.4852755228
 H        -7.2043893273        4.3854586367       -0.3774870125
 H        -9.0658659563        4.4857211250       -2.4479674905
 H       -10.1289531468        4.8918293892       -1.0163412830
 H       -10.6142234370       -0.0488680618       -3.0542018507
 H       -12.3411528549        0.2391820517       -2.6950360559
 H       -12.1477528488       -2.1822488840       -2.4706887851
 H       -12.1519208443       -1.4852529288       -0.8021843016
 H        -7.2826532141       -3.3750444876       -0.6022567214
 H        -7.6018285757       -5.0475779738       -0.1380999271
 H        -6.1293702022       -3.8568238981        1.6303383937
 H        -7.5832668360       -4.3162190111        2.3330391203
 H       -10.8397366279       -1.8091632247        4.7533989292
 H        -9.3262916289       -1.7309517864        5.6427797599
 H        -9.6922020566       -3.2315056495        4.7292238774
 H        -7.6267623018       -3.6083971634        4.4570630113
 H        -7.1550021610       -2.3309003717        5.4098162546
 H        -5.9826486662       -2.9071558572        4.3469139785
 H        -6.9348927504        0.3783080180        2.7122494734
 H        -5.7313756003       -0.4675423682        3.6655246318
 H        -7.0969232645        0.0824723948        4.4531609983
 H       -12.3451425611       -4.1551465861       -1.9259610405
 H       -11.9603308582       -4.4712509534       -0.3569678765
 H       -11.3700038307       -5.5894751389       -1.6127347719
 H        -9.4384092687       -5.3004649193       -2.8031686981
 H        -8.2349338854       -3.9790178936       -2.6062804342
 H        -9.7032821878       -3.6633797947       -3.5232253919
 H       -12.7914211807        2.7765769225        0.0371300193
 H       -12.2009608550        4.2313906655       -0.5946494910
 H       -11.2886420849        3.3523125009        0.7166147464
 H       -12.5132311387        2.2466870938       -2.9508814413
 H       -10.9125311185        2.4494843898       -3.4886352265
 H       -11.6806642694        3.7925968894       -2.7657963057
 H        -4.9027214243        8.3964040372       -1.6707319749
 H        -6.5096453624        8.6233807578       -2.1026438221
 H        -5.6811381693        7.2550171135       -2.6965182489
 H        -4.9834583302        5.2010583190       -1.3474855114
 H        -5.3372552886        5.1327175743        0.4210263166
 H        -4.1723997178        6.4444794291       -0.2553069570
 H       -11.1885197024       12.1159581333        3.2519722592
 H       -12.5675322500       11.2600270085        2.5048969964
 H       -11.4117108290       11.9567644523        1.5154578405
 H       -11.6795460272        9.2112446019        4.0449800969
 H       -10.0179132632        9.8806560481        4.3561030768
 H       -10.2696846149        8.3788406656        3.5969358451
 H       -10.4580298541        7.6321646117       -3.1642693270
 H       -10.7226500305        8.7972029547       -4.4315620469
 H       -10.9340728969        7.2122819890       -4.7780206292
 H       -13.7192705304        7.7264185442       -5.3475514384
 H       -12.8785957426        9.3391660990       -5.3077963453
 H       -14.3206170291        9.0987614561       -4.4164501656
 Na       -8.9892348388        0.0784247242        0.6722170006
