117

 C       -14.3547724674        6.5836206583       -3.4023288007
 C       -12.9388770151        6.9052360375       -3.5250898400
 O       -11.9852767410        6.1523728914       -3.2282540825
 C       -12.6211861850        8.3558739508       -3.8697002900
 C       -12.8664578284        9.1691643461       -2.4457557825
 O       -13.9084861106        9.7382674958       -2.2792532787
 C       -11.7871998087        9.0784710537       -1.4090825553
 C       -12.2692596425        9.8412108747       -0.1145109909
 C       -11.5193231981        9.2106706909        1.1681697445
 O       -11.6633486643        8.0682506986        1.3897237233
 C       -10.4840337959       10.1570311397        1.9693449877
 C        -9.1324446187       10.1374928190        1.0926252637
 O        -8.8425612920       10.9742722003        0.3273215292
 C        -8.2200697746        8.8996710151        1.3957694675
 C        -7.3353692553        8.6297541028        0.1813186007
 C        -6.5522658920        7.3175463776        0.4044810166
 O        -6.4941135395        6.7880233780        1.4839229258
 C        -6.0669041795        6.5183332651       -0.9584335937
 C        -7.5364310258        6.0045636653       -1.3207633585
 O        -8.2943957382        6.7618424704       -1.8083574624
 C        -7.9535538874        4.5191968557       -0.9570936240
 C        -9.4276646704        4.5155173147       -0.9720688726
 C        -9.9092293223        3.1105679712       -0.5521636684
 O        -9.1024349524        2.3782338130        0.0152383803
 C       -11.3360546913        2.7017552544       -0.8120934980
 C       -11.4363472889        1.0877387193       -0.5286630619
 O       -11.3110784260        0.6101174807        0.5620729745
 C       -11.8168179375        0.1601569855       -1.5923872876
 C       -11.7081870903       -1.3614351961       -1.1734910128
 C       -10.2384109893       -1.9404062183       -0.9953241045
 O        -9.3326467510       -1.2329680224       -0.6400031528
 C       -10.0316148595       -3.4491474666       -1.3450295468
 C        -9.3041649820       -3.9299128923        0.0579715386
 O        -9.9658896434       -4.3372276524        0.9808525854
 C        -7.7880156336       -3.8760256966        0.2361063413
 C        -7.4961543548       -3.7645631503        1.7509160071
 C        -7.4516034759       -2.2311195745        2.0730601407
 O        -7.3549295509       -1.4524621318        1.1280799889
 C        -7.5433960700       -1.7781518109        3.6249602030
 C        -9.0350925400       -1.3906957066        3.8063164567
 O        -9.5473387804       -0.5039164905        3.2444744581
 C        -9.8359365823       -2.2127984103        4.7796244784
 C        -6.9019497701       -2.7417306575        4.5404160222
 C        -6.7528808318       -0.4175094505        3.7612131401
 C       -11.3490789154       -4.1951248073       -1.4534136906
 C        -9.0425168090       -3.7189372186       -2.5473928535
 C       -12.3029945412        3.3980578293        0.1574960938
 C       -11.8036349813        3.1523582892       -2.2135994453
 C        -5.5598208499        7.3652721637       -2.0874401335
 C        -5.1779511534        5.2955794334       -0.5644608896
 C       -11.0614578732       11.6400550051        2.1051702341
 C       -10.2464782424        9.6381865822        3.3646669425
 C       -11.1148486770        8.5133424349       -4.3147746925
 C       -13.5823879383        9.0287246332       -4.8492952642
 H       -14.4626404042        5.9918296752       -2.4781699320
 H       -14.5605819376        5.7986340052       -4.1632549420
 H       -15.0413742758        7.4134673253       -3.4391696649
 H       -10.8449631160        9.5234064361       -1.6909610794
 H       -11.6214236886        7.9935165698       -1.2219113784
 H       -13.3759042845        9.7731282360       -0.1298712428
 H       -12.0547828845       10.8969477427       -0.1295484497
 H        -8.7926955912        7.9991718052        1.6254227995
 H        -7.5790123987        9.1349621711        2.3384084698
 H        -6.6102504861        9.4001533940        0.0029925343
 H        -7.9160001093        8.6158802924       -0.8003754196
 H        -7.5849658171        4.2557019109        0.0122233016
 H        -7.5898678181        3.9405935364       -1.7602243479
 H        -9.8621485824        4.9166531199       -1.9023691680
 H        -9.7431994432        5.2663537617       -0.2943074484
 H       -11.1711722803        0.2289037448       -2.4916548727
 H       -12.8267122810        0.4150891042       -1.9358899944
 H       -12.2151733704       -1.9672456612       -1.8957307464
 H       -12.2364182952       -1.5775911755       -0.1825877715
 H        -7.4135248170       -2.9758915495       -0.3290208295
 H        -7.3660906080       -4.8175792989       -0.1991749176
 H        -6.4829849281       -4.0614363090        1.9668875454
 H        -8.2771926647       -4.1849731686        2.3482642095
 H       -10.8984443257       -1.9564368241        4.6158557396
 H        -9.5161927999       -1.7241904589        5.7251276272
 H        -9.6454066918       -3.2158016292        4.8753556922
 H        -7.2285921349       -3.7324648703        4.5981899943
 H        -6.8342945322       -2.3403524039        5.5485095201
 H        -5.8609272504       -2.9232967290        4.1695721838
 H        -6.9926164253        0.3734512526        2.9758063583
 H        -5.6693838689       -0.6509484668        3.6221617337
 H        -6.9526375978       -0.0203233145        4.6971964813
 H       -11.7550551089       -4.2413488593       -2.4745782558
 H       -12.0926445088       -3.9373949184       -0.7639686036
 H       -11.1836523999       -5.2425681748       -1.3088416526
 H        -8.7357121153       -4.7339563783       -2.6423899339
 H        -8.1331177682       -3.0342855950       -2.4454327682
 H        -9.5545401814       -3.5136580006       -3.4699561163
 H       -13.2982012902        2.9317186560        0.0033493154
 H       -12.2535272935        4.4212061072       -0.0489762546
 H       -12.0206931848        3.2861767725        1.2062784651
 H       -12.7866270281        2.7522557175       -2.4322177631
 H       -11.0564856473        2.8215358268       -2.9369952087
 H       -11.9146722235        4.2372076878       -2.2898066925
 H        -4.6012637267        7.9075278009       -1.7988018626
 H        -6.2910522459        8.1288716584       -2.4209311272
 H        -5.1736558389        6.7272453921       -2.9213957418
 H        -5.1999365324        4.5206370034       -1.2976928347
 H        -5.3418480028        4.8803610455        0.4970971178
 H        -4.0811910575        5.5696008646       -0.4113122001
 H       -10.6015683777       12.0598224848        2.9728128886
 H       -12.1356120794       11.6930435858        2.2977073421
 H       -10.7521792949       12.3299841980        1.2842859054
 H       -11.0480324563        9.7622123522        4.1172803813
 H        -9.4908975069       10.2601480967        3.8820320605
 H        -9.9809820552        8.5939168549        3.3087119439
 H       -10.3316860620        7.8780474861       -3.7430543131
 H       -10.7317313978        9.5106420261       -4.0419949351
 H       -11.0337722010        8.3137820998       -5.3789186029
 H       -13.6745093634        8.5049766324       -5.7794695353
 H       -13.2662073940       10.0116573928       -4.9814413124
 H       -14.5791744353        9.0646157776       -4.3375528594
 Na       -9.0936925295        0.2762926756        1.0748887657
