117

 C       -14.2889508573        6.4669534386       -3.7772283145
 C       -12.8305792142        6.9675458078       -3.7608160847
 O       -11.9710407425        6.1692615383       -3.4774357977
 C       -12.5821062798        8.4724470829       -3.9008255931
 C       -12.9687001610        9.0665685138       -2.4893889495
 O       -14.0296282719        9.6151840812       -2.2931364220
 C       -11.8297944007        8.9928911565       -1.4680334295
 C       -12.2286511706        9.6909043424       -0.1783717856
 C       -11.4395627385        9.2340369884        1.0930769140
 O       -11.5583014194        8.1607880826        1.5728287371
 C       -10.4139853103       10.2096712545        1.8000761973
 C        -8.9646329958       10.0905835403        0.9811237617
 O        -8.5546075020       10.9665550969        0.3216562941
 C        -8.2387725725        8.7497265660        1.1851044547
 C        -7.0117258907        8.6709960808        0.2603255771
 C        -6.4711294277        7.1899926091        0.3141820309
 O        -6.4091299258        6.5581235004        1.3254980433
 C        -6.0483379174        6.4785673832       -1.0135371786
 C        -7.4319503233        6.0000964743       -1.5364729819
 O        -8.1685883344        6.5845782311       -2.2604754265
 C        -7.9707204249        4.6128979064       -0.9204179619
 C        -9.4849665465        4.5087803578       -0.8986586011
 C        -9.9505442742        3.0868393376       -0.4321255197
 O        -9.2430385175        2.3944598060        0.2437106231
 C       -11.4981365966        2.5610539959       -0.5826527444
 C       -11.5615503404        1.0524328006       -0.2208631527
 O       -11.6090284222        0.6425926590        0.9245571894
 C       -11.7537148291        0.1318839306       -1.4531936847
 C       -11.8092411223       -1.3887085034       -1.1059717713
 C       -10.3821480566       -2.0198072757       -1.0209578112
 O        -9.4164873490       -1.2215150473       -0.9727828682
 C       -10.0866268822       -3.4828646730       -1.2242226432
 C        -9.4310246345       -3.9104726171        0.1961889101
 O       -10.0945261426       -4.2829386750        1.1334442106
 C        -7.8744787462       -3.7773142849        0.2841486677
 C        -7.2360668985       -3.4930313610        1.6013848940
 C        -7.4700850703       -2.0346035386        2.0803315864
 O        -7.4156075908       -1.1405571683        1.2681948883
 C        -7.5857302847       -1.7289873098        3.5780890151
 C        -9.1256672842       -1.4314448189        3.9444595745
 O        -9.7048503031       -0.6751625028        3.2822354826
 C        -9.7651037822       -2.1514186541        5.1327398975
 C        -7.0892778612       -2.9155543416        4.4405608794
 C        -6.7037854164       -0.5234595362        4.0014230555
 C       -11.3018495809       -4.3663174546       -1.5370441738
 C        -9.0280871059       -3.5387716118       -2.4485913068
 C       -12.3811890387        3.3624697917        0.3788591691
 C       -11.9618257934        3.0033573913       -2.0176297584
 C        -5.4917271814        7.5573957825       -2.0151399392
 C        -5.0393136172        5.3862721886       -0.8001788100
 C       -10.7693551901       11.7103853818        1.8112628804
 C       -10.2398652946        9.7801558143        3.3064391445
 C       -11.1080435376        8.6384431544       -4.2349326908
 C       -13.5664965242        9.0616067917       -5.0171792140
 H       -14.5187097921        5.8960030060       -2.9352397891
 H       -14.7121332903        5.9276223075       -4.6731324450
 H       -14.8225933287        7.3736053132       -3.6024137740
 H       -10.9380091103        9.5458425089       -1.7712438412
 H       -11.4513920112        7.9600167546       -1.2795215374
 H       -13.2463095382        9.3709474422        0.0695257527
 H       -12.2294545295       10.7468729149       -0.2196017247
 H        -8.9576411686        8.0340093182        0.7511611066
 H        -7.8999907219        8.5845787412        2.2090866058
 H        -6.2881937170        9.4709133550        0.5584291173
 H        -7.3011408866        8.9237904379       -0.7609698255
 H        -7.4923427745        4.5565620286        0.0995200879
 H        -7.5905646245        3.8572713405       -1.5520735712
 H       -10.0161999183        4.8757086854       -1.7945691068
 H        -9.9664490379        5.1739540232       -0.1652393660
 H       -10.9893646840        0.2912123082       -2.2378726940
 H       -12.7029808580        0.3756973440       -1.8886229222
 H       -12.4212548234       -1.9736117555       -1.8341657319
 H       -12.3191985247       -1.4630795893       -0.2087710131
 H        -7.5730839976       -2.9921647724       -0.4122149316
 H        -7.4432643102       -4.7016802564       -0.0625008373
 H        -6.1332053121       -3.4620070022        1.2920571096
 H        -7.5297583573       -4.1279179461        2.4043277144
 H       -10.7971137541       -1.7601196682        5.3367300287
 H        -9.0927561968       -2.1118551817        6.0232623566
 H        -9.7956008234       -3.1402558531        4.8859910546
 H        -7.5789077517       -3.8631506544        4.3746163670
 H        -7.2194245857       -2.6356405985        5.4849274386
 H        -5.9930036606       -3.1773791199        4.2941214839
 H        -7.3255210499        0.3554864002        3.5766916335
 H        -5.6858897603       -0.5206161674        3.6175644142
 H        -6.7009047151       -0.3895306793        5.0570108900
 H       -12.0167658044       -3.9859822463       -2.2845881770
 H       -11.8579576942       -4.7240196609       -0.6640110892
 H       -10.9535654048       -5.2147186809       -2.1161248500
 H        -8.5546319546       -4.4887236280       -2.5553151006
 H        -8.2821800749       -2.7060516402       -2.3149466158
 H        -9.5164400595       -3.4458169405       -3.3775890212
 H       -13.2606277790        3.7861627438       -0.1302953806
 H       -11.8175050847        4.1425714568        0.8938939015
 H       -12.7156365471        2.6866665656        1.1857754188
 H       -13.0566037854        2.7896579509       -2.0985124036
 H       -11.3813702136        2.4703403919       -2.8102690451
 H       -11.8275861015        4.0766000835       -2.0983846056
 H        -4.8408551985        8.2053234680       -1.4896195141
 H        -6.2411739967        8.1445913379       -2.4362164993
 H        -4.9522600228        7.0659309410       -2.8337024973
 H        -4.9572641931        4.8505567974       -1.6277216906
 H        -5.3454917112        4.6562948442       -0.0417722679
 H        -4.0878453579        5.7468758414       -0.5181098919
 H       -10.0008365335       12.3555404607        2.2834274617
 H       -11.7206333835       11.8465361060        2.3124442700
 H       -10.8820882704       12.0433565943        0.8044076379
 H       -11.0725705488       10.0453069758        3.9075288378
 H        -9.3986725693       10.2202808913        3.8010715728
 H       -10.2032498277        8.6875387860        3.3756500903
 H       -10.5024674527        8.2596172227       -3.3991279571
 H       -10.7589094030        9.6370063361       -4.2784351554
 H       -10.9556341042        8.1355466489       -5.1200538282
 H       -13.2984437451        8.4264982587       -5.9265434098
 H       -13.3666271115       10.0450004946       -5.2780916903
 H       -14.6366990384        9.1483951846       -4.6565481429
 Na       -9.1334349877        0.3450641649        1.2429175064
