117

 C       -14.2539927924        6.4780395889       -4.2619272098
 C       -12.8566701783        6.9167822061       -3.8792417689
 O       -11.9981729346        6.1513413958       -3.4100831235
 C       -12.5336631985        8.4519466677       -3.9348790536
 C       -12.8533166312        8.9972398861       -2.5466395164
 O       -14.0111570682        9.2886743035       -2.3226402544
 C       -11.7736660949        8.9865644913       -1.4340633195
 C       -12.2605165942        9.6346636117       -0.1554163940
 C       -11.3015092347        9.2491219902        0.9904282078
 O       -11.1583400980        8.1232449263        1.3053450400
 C       -10.2893329467       10.3608706908        1.6143774567
 C        -8.8289244360       10.0338119020        0.9142109482
 O        -8.3468127140       10.8335521084        0.2053973045
 C        -8.3204811293        8.5967828555        1.0905059870
 C        -6.8949806121        8.4327994445        0.4990887278
 C        -6.4717023635        7.0046295834        0.2613521813
 O        -6.2478194647        6.2693100733        1.2250218166
 C        -6.1725235039        6.4935622730       -1.1899725088
 C        -7.4271266210        5.7395448757       -1.6335298441
 O        -8.0211200120        6.0080368924       -2.6312880987
 C        -8.0810012195        4.7268529077       -0.6417879387
 C        -9.4903690909        4.3041904289       -1.1994979814
 C        -9.9576834257        3.0543075155       -0.3644834868
 O        -9.2388648333        2.4851490559        0.4518890822
 C       -11.5309790974        2.7163469606       -0.4945322638
 C       -11.8095379814        1.1074787602       -0.1825145739
 O       -11.6909493295        0.7810512750        0.9813265890
 C       -12.0684322214        0.1570326422       -1.2893387087
 C       -11.8140305324       -1.3249311647       -0.9670811957
 C       -10.3484648678       -1.7983449637       -0.9489877373
 O        -9.4464336379       -0.9575824490       -0.7810185804
 C       -10.0900082433       -3.2794033334       -1.2357642804
 C        -9.2472245852       -3.6143403600        0.0804727913
 O        -9.8051523295       -4.0424061309        1.0627935311
 C        -7.7356519043       -3.4553297510        0.1593431159
 C        -7.1937715335       -3.4716731711        1.5820039560
 C        -7.4967128943       -2.0998147798        2.2946368373
 O        -7.5645121789       -1.0756087445        1.5700814213
 C        -7.6008285336       -1.9346350591        3.7866554621
 C        -9.1812120514       -1.5343928866        4.0933971220
 O        -9.8865323547       -0.9328098926        3.3539597223
 C        -9.7405959532       -1.9690871343        5.4443650806
 C        -7.1038487978       -3.0303311650        4.6523601930
 C        -6.8882979714       -0.5262407154        4.1747685604
 C       -11.3887530532       -4.1104957379       -1.1684735136
 C        -9.3103558464       -3.5635553599       -2.5605294268
 C       -12.0824049076        3.4589984576        0.7447648718
 C       -12.1887304678        3.1806123178       -1.8403123358
 C        -5.8468665849        7.6059082700       -2.2106131021
 C        -4.9841765700        5.4288565542       -1.0766079246
 C       -10.6818201788       11.8041615688        1.3959548868
 C       -10.2348061875       10.1508471808        3.1046743886
 C       -11.0333260487        8.5233065341       -4.2492324343
 C       -13.3548469493        9.2186601850       -4.9505644974
 H       -14.3329602966        5.4174752395       -4.5546295471
 H       -14.8321267747        7.2121865653       -4.8807382313
 H       -14.7299228937        6.4542565922       -3.2773965342
 H       -10.8844507635        9.5083120622       -1.7981709674
 H       -11.3538506077        7.9863005726       -1.2048956120
 H       -13.2506363957        9.1576004217        0.0632274217
 H       -12.3772439887       10.7003686018       -0.2762828579
 H        -8.9788163532        7.9946296121        0.4969020241
 H        -8.3118992379        8.4157957732        2.1564445765
 H        -6.1756376854        8.7775001566        1.2259882494
 H        -6.9064480779        9.0198771199       -0.4262837270
 H        -8.0594772369        5.1100938452        0.4366754635
 H        -7.3677683322        3.9069867815       -0.5402992574
 H        -9.5619962354        4.0799389638       -2.3069916499
 H       -10.2955699595        5.0506686324       -1.0551074362
 H       -11.4597517773        0.5037841960       -2.1531703415
 H       -13.1150907284        0.1844522005       -1.5936996678
 H       -12.2871391828       -1.8336717686       -1.7996905861
 H       -12.3752208188       -1.6967525107       -0.1301465537
 H        -7.4938128663       -2.5706391000       -0.4005178253
 H        -7.3213875868       -4.2569565004       -0.3954841681
 H        -6.0574776221       -3.3912765516        1.4855429339
 H        -7.5342773165       -4.2849449156        2.1999543127
 H       -10.6112189544       -1.3170330805        5.6925013466
 H        -8.9633474044       -1.8330438374        6.2492148198
 H       -10.0299027710       -2.9836245428        5.4169256726
 H        -7.7091082338       -3.9062551344        4.6069819129
 H        -7.0465641591       -2.7184553094        5.7047193693
 H        -6.0280152629       -3.2333424881        4.3616641775
 H        -7.1745717494        0.2171552352        3.4317612585
 H        -5.8019285665       -0.6940059404        4.3394043041
 H        -7.1401196485       -0.2208242247        5.1075346815
 H       -11.9956024987       -4.0943031522       -2.1628174816
 H       -12.0709167029       -3.7664572402       -0.3779182187
 H       -11.0310610446       -5.1451721258       -0.8751552556
 H        -8.8914842978       -4.5585221170       -2.5583572203
 H        -8.4424117822       -2.8016775884       -2.5826966193
 H        -9.8683079680       -3.3892646184       -3.4570804633
 H       -13.0217534568        3.0440797348        1.1125272611
 H       -12.3612376646        4.4105732687        0.4128687849
 H       -11.3681848903        3.5109832098        1.5556947118
 H       -13.2274684357        2.8652971889       -1.7881421445
 H       -11.7190492932        2.6347684354       -2.6683233996
 H       -12.0685331172        4.2302011263       -1.8899830411
 H        -4.9866847219        8.1471162131       -1.8661628688
 H        -6.6479472385        8.2990598913       -2.2669751260
 H        -5.7420354828        7.1743929071       -3.1968689445
 H        -4.9419957811        4.7715100024       -1.9036227868
 H        -5.1562383031        4.7216044397       -0.2518748345
 H        -4.0196658342        5.9428609758       -1.0796453657
 H       -10.1068870213       12.3713405953        2.1217372722
 H       -11.7570833974       11.9555937419        1.5551415810
 H       -10.4193629735       12.1293691861        0.3739592823
 H       -11.1232224074       10.5307209172        3.6107548890
 H        -9.2979428465       10.5391448410        3.5114711427
 H       -10.1580766815        9.1083731383        3.3622548265
 H       -10.4486720875        7.6782411108       -3.7595272694
 H       -10.6351075566        9.4875926312       -3.9443950323
 H       -10.8525281436        8.4882989040       -5.2845402470
 H       -13.1572719305        8.8943769050       -5.9815692180
 H       -13.0266150309       10.2557379913       -4.9097965919
 H       -14.4403008867        9.2491981681       -4.5430272759
 Na       -9.4417860138        0.1848265362        1.1567878932
