117

 C       -14.0495905451        6.3314550061       -4.8781267579
 C       -12.8520667239        6.7381591998       -4.0622144297
 O       -12.4081715565        6.0833167382       -3.0837215255
 C       -12.3206316371        8.1925667080       -4.1326200828
 C       -12.5033201270        8.8038735600       -2.6764919346
 O       -13.4873974958        9.4809437888       -2.5446955383
 C       -11.5220494386        8.4393615909       -1.5974407329
 C       -12.0652586687        9.0287339495       -0.2543161587
 C       -10.9670430369        8.9070895055        0.8411257885
 O       -10.8168349361        7.8917134565        1.4894184658
 C        -9.9645122716       10.1512238150        1.0333169279
 C        -8.6108436301        9.6928015470        0.4758420326
 O        -8.1858122679       10.2113905388       -0.6115781765
 C        -7.7283670649        8.6681092613        1.1942627199
 C        -6.4607856064        8.3039236268        0.4242451846
 C        -6.2898034842        6.7979627027        0.0506743610
 O        -6.2181581635        5.9697284393        0.9782503493
 C        -6.2699776545        6.2970953836       -1.5177699600
 C        -7.5933753777        5.5862054816       -1.9126808300
 O        -8.1702802641        5.8555439382       -2.9636905436
 C        -8.0769903921        4.4342146213       -0.9635320452
 C        -9.4829602969        4.0706987735       -1.1906572422
 C       -10.0867063412        3.0211601681       -0.2133018444
 O        -9.3014484086        2.4145780535        0.4698044374
 C       -11.6913960460        2.7891640889       -0.0599583812
 C       -11.9034223955        1.2286410963       -0.0459058120
 O       -11.6407543527        0.6293217726        0.9613921050
 C       -12.4333879157        0.4803100846       -1.2719596244
 C       -12.1617871752       -1.0032530091       -1.1129971816
 C       -10.6695982633       -1.4597553449       -0.8202386942
 O        -9.7832876294       -0.5866726034       -0.6170718601
 C       -10.3621730748       -2.9576162948       -0.7708095780
 C        -9.4197167782       -3.1905578093        0.4804810300
 O        -9.8444345698       -3.5228580250        1.5433403905
 C        -7.9588618948       -2.8143362313        0.3213586605
 C        -7.1781362278       -2.8456709250        1.6101444076
 C        -7.6002102993       -1.6266092478        2.4679712394
 O        -7.6260619946       -0.5072119058        2.0069093159
 C        -7.7756018628       -1.7532266147        3.9828587740
 C        -9.3243473441       -1.6396283104        4.3133234403
 O       -10.0091884536       -0.7129444525        3.8181889899
 C        -9.9761992348       -2.6502897241        5.2136037262
 C        -7.2314066522       -3.0410373208        4.5926332615
 C        -7.0501352088       -0.5608000478        4.5967479986
 C       -11.6080278939       -3.8813861600       -0.5486957075
 C        -9.6173177346       -3.2736508799       -2.1426256788
 C       -12.0320134489        3.3611635689        1.3876520368
 C       -12.4501023496        3.6219908989       -1.1527907419
 C        -6.0998868827        7.5160340112       -2.5414306728
 C        -5.0868315528        5.3007289230       -1.4868472723
 C       -10.3683404387       11.4848888795        0.3312230710
 C        -9.8407569616       10.4137524856        2.5316850563
 C       -10.7747877858        8.0919793852       -4.3636459894
 C       -12.9029619434        9.0926858519       -5.2218759517
 H       -14.6926138931        5.7947032651       -4.1408560607
 H       -13.7533657622        5.5665832162       -5.5786702245
 H       -14.4789550969        7.1944167103       -5.3315136530
 H       -10.5102558026        8.8532116557       -1.7278008476
 H       -11.4396590055        7.3402757625       -1.4986224184
 H       -12.8945497020        8.4332928323        0.1709633657
 H       -12.4259158311       10.0178801365       -0.3437145944
 H        -8.3048068744        7.7771392444        1.6141915653
 H        -7.4734156930        9.0503126035        2.1488870101
 H        -5.6382019918        8.7016467155        1.0612533140
 H        -6.2369748949        8.9351565005       -0.4616323856
 H        -8.0086829182        4.7009181150        0.0998784362
 H        -7.4399936930        3.6476619972       -1.2532044143
 H        -9.4472398843        3.6788892895       -2.2093921133
 H       -10.0979410202        5.0008744765       -1.0936780064
 H       -11.9685473445        0.9217131487       -2.1469570841
 H       -13.5014327242        0.5970664787       -1.3929945199
 H       -12.5899641038       -1.4867269457       -2.0086833036
 H       -12.6571370158       -1.4293804642       -0.1571938763
 H        -7.9744764722       -1.8249503544       -0.1581237073
 H        -7.5060775316       -3.4607510256       -0.4233847475
 H        -6.0884004329       -2.8704741069        1.5271360315
 H        -7.3320470965       -3.6792766283        2.2313868370
 H       -10.8130308550       -2.1954807874        5.6572206204
 H        -9.4120749592       -3.2759107280        5.9134539079
 H       -10.4178027350       -3.2844737623        4.3938584577
 H        -7.8167253853       -3.8654217352        4.2646591769
 H        -7.3712935558       -2.8314100227        5.6608313084
 H        -6.1328763519       -3.1355681214        4.3509987008
 H        -7.4067962251        0.3918654258        4.2732656446
 H        -5.9151234847       -0.6698374213        4.3997830505
 H        -7.3210310831       -0.6493640381        5.6447356270
 H       -12.3916141279       -3.4752427880       -1.2484623628
 H       -11.8315432265       -3.9008014647        0.5010651538
 H       -11.4560694065       -4.7986005456       -1.1049902264
 H        -8.9082501301       -4.0854415538       -2.1125355781
 H        -9.1190648568       -2.3203394742       -2.4790716579
 H       -10.3142693119       -3.5775490785       -2.8954062523
 H       -12.8204297449        2.7732364222        1.8691227652
 H       -12.2530705086        4.3654150913        1.3256804065
 H       -11.1707449368        3.3675438388        2.0422294171
 H       -13.4977433497        3.3128459248       -1.1633967794
 H       -11.9775827474        3.3647335024       -2.1200572965
 H       -12.3343265964        4.6865408946       -1.0023064953
 H        -5.1507606342        7.9534397323       -2.3022891214
 H        -6.8821889904        8.2318131446       -2.4447326560
 H        -6.0833187423        7.0938185036       -3.5048738613
 H        -4.8745474408        4.9135346303       -2.4739948666
 H        -5.1442958267        4.5568815046       -0.7948668349
 H        -4.3039164592        5.9460684345       -1.2984229126
 H        -9.5615061606       12.1641628637        0.5167659451
 H       -11.2911992249       11.8523897341        0.7935312998
 H       -10.5554057985       11.3651919898       -0.7625384598
 H       -10.8095723999       10.5325915056        3.0428924436
 H        -9.2692873926       11.3348891737        2.7636296702
 H        -9.4875179736        9.5136989416        2.9392777059
 H       -10.3359025695        7.3856912612       -3.6710785948
 H       -10.2733376345        8.9859655810       -4.1468678596
 H       -10.7164596803        7.8777693839       -5.3725587321
 H       -12.7542126343        8.5351995343       -6.0944826616
 H       -12.4035035535       10.1433225117       -5.2967411232
 H       -13.9636894075        9.2802025192       -5.0095771670
 Na       -9.6456109140        0.5842036915        1.8627233846
