117

 C       -14.1365339256        6.4913447841       -4.7194451166
 C       -12.9201058296        6.8914996591       -3.9505093066
 O       -12.2998286492        6.0962842111       -3.2100235063
 C       -12.3747858145        8.3874278900       -4.0257405976
 C       -12.8088048406        8.9831828200       -2.6349627980
 O       -13.9827272087        9.1052865106       -2.3575485653
 C       -11.6668983020        9.1035673267       -1.4990455632
 C       -12.1853384669        9.3969071385       -0.0956487713
 C       -11.1730788677        9.0898691289        0.9503011976
 O       -11.0781119013        7.9531786021        1.3500671689
 C       -10.1050673923       10.2433689699        1.3550320457
 C        -8.7133301837        9.9166417510        0.7551900486
 O        -8.1148798609       10.7644049043        0.0568114308
 C        -8.0647521758        8.6302190968        1.0550922937
 C        -6.5901615183        8.4543036356        0.5487203135
 C        -6.3891157649        6.9974944257        0.1941195367
 O        -6.2793975913        6.1882409565        1.1467233429
 C        -6.2702592760        6.4632122629       -1.2347731961
 C        -7.5321724089        5.5475010948       -1.6792400924
 O        -7.9485122441        5.5643534542       -2.8363323798
 C        -8.1803110527        4.6749391596       -0.6700734428
 C        -9.5114166200        4.0344029566       -1.3108414035
 C       -10.0300115657        2.9586235594       -0.3668754314
 O        -9.3294888182        2.0585445575        0.0690441057
 C       -11.5916978836        2.8147383338       -0.2653547291
 C       -11.8337138811        1.2652036304       -0.1462790245
 O       -11.7834168149        0.8099732358        0.9822301805
 C       -12.0855004343        0.3224388579       -1.3295734791
 C       -12.0068868001       -1.1549789391       -1.0755556303
 C       -10.5239273900       -1.6316816870       -0.9553472639
 O        -9.7160834292       -0.7236811781       -0.7452317767
 C       -10.1469224282       -3.1029463175       -0.9795923123
 C        -9.2386579019       -3.4655636188        0.2969501007
 O        -9.8029465243       -3.8928202291        1.2752594121
 C        -7.7429330580       -3.2025023504        0.1950312901
 C        -7.2109068115       -3.2588379588        1.6139658982
 C        -7.4685810570       -1.9057320197        2.2849367684
 O        -7.5323771441       -0.7960040409        1.6706014810
 C        -7.7024532499       -1.8477855398        3.8350711545
 C        -9.2281958207       -1.5679742958        4.1565455576
 O        -9.9421043561       -0.9397725105        3.3694042088
 C        -9.7960675163       -2.0570565158        5.4739741029
 C        -7.1782275156       -3.2132674209        4.4919138433
 C        -6.8836100508       -0.7012968470        4.3973392669
 C       -11.3493943443       -4.0407267803       -0.9036114425
 C        -9.3155337856       -3.3704299591       -2.2196005643
 C       -12.0630288853        3.5340068140        1.0249789237
 C       -12.3110596490        3.4124646021       -1.5421297123
 C        -6.1817231372        7.6372880323       -2.2286772667
 C        -5.0366573221        5.5549727485       -1.2071529413
 C       -10.4713867612       11.7048722919        0.9334939789
 C        -9.9842260253       10.2775125913        2.9054786806
 C       -10.8694832972        8.3199390823       -4.3595140243
 C       -13.2161276219        9.1631161780       -5.0455380574
 H       -14.3977837989        5.4829409324       -4.3011667961
 H       -14.1658972581        6.7454261507       -5.7608939827
 H       -14.9343791891        7.0505941201       -4.2313708325
 H       -10.9387992542        9.7943238695       -1.9048889041
 H       -11.1451548373        8.1370459255       -1.4921291045
 H       -13.0306085546        8.6579790062        0.0524695849
 H       -12.6592988565       10.3682538737       -0.1707467681
 H        -8.7542596147        7.8914665352        0.6433658938
 H        -8.0269119077        8.4782768077        2.1421926783
 H        -5.9512701815        8.6125305059        1.3493464777
 H        -6.4408241308        9.0834156312       -0.3370311369
 H        -8.3421253703        5.2332555285        0.3270577344
 H        -7.4217969536        3.9132311210       -0.3428159135
 H        -9.2654796249        3.5231542038       -2.2722534163
 H       -10.3767163268        4.6714865174       -1.3741186849
 H       -11.3309541972        0.5824607496       -2.1231198428
 H       -13.0733942538        0.5975194474       -1.7284416396
 H       -12.3842496836       -1.6861798743       -1.8866877381
 H       -12.6552028632       -1.5211052601       -0.2229856107
 H        -7.6525572284       -2.2419825478       -0.3238513972
 H        -7.2688343636       -3.8645717733       -0.5174104126
 H        -6.0801812650       -3.3981120270        1.6739642176
 H        -7.6096607414       -3.9719847453        2.3157920261
 H       -10.8622525180       -2.0618327309        5.4175963884
 H        -9.5195435543       -1.3049818690        6.2347276370
 H        -9.4393089886       -3.0837036245        5.7586765932
 H        -7.9412505939       -3.9518433578        4.4468097451
 H        -6.8878679503       -3.0239236022        5.5412974236
 H        -6.2716662321       -3.5541068937        3.9510380170
 H        -7.2652298918        0.1752050938        3.9684522870
 H        -5.7720340535       -0.7898830898        4.1326620565
 H        -7.0154365527       -0.6466810019        5.4558348881
 H       -12.0117992044       -3.6475503948       -1.7255407958
 H       -11.8498564818       -4.0346434040        0.0474332338
 H       -10.9116786959       -5.0386434056       -1.0569481325
 H        -8.8326522670       -4.3266688606       -2.1824598208
 H        -8.5046467864       -2.6040093158       -2.3409628684
 H        -9.9416167193       -3.2339953349       -3.0821398931
 H       -13.0841033768        3.9625074364        0.9170683252
 H       -11.4473721856        4.3419484133        1.2882325626
 H       -12.0855839700        2.7739661580        1.8233939423
 H       -13.2090127011        2.8398516146       -1.6380505589
 H       -11.6188262490        3.1146174707       -2.3154560836
 H       -12.5106636789        4.4753764649       -1.4829610729
 H        -5.2005061672        8.1894262688       -2.0655536199
 H        -7.1117873945        8.2530493242       -2.1971628772
 H        -6.1205174950        7.1320999118       -3.2056202781
 H        -4.8789361149        5.0520238458       -2.2698765047
 H        -5.1153385599        4.7765262705       -0.4312651996
 H        -4.0776391955        6.1155147659       -0.9145717272
 H        -9.6625662771       12.3498617086        1.1496683000
 H       -11.3021561718       11.9519634589        1.5896645150
 H       -10.7509829333       11.8282278017       -0.1502727964
 H       -11.0222424593       10.4469948489        3.3146104056
 H        -9.2546722154       11.0294251440        3.3484403733
 H        -9.5873643565        9.3461012962        3.2558515600
 H       -10.4819661934        7.3978323893       -3.8649687230
 H       -10.3858099185        9.2952078063       -4.2615444113
 H       -10.6659815816        8.0143363398       -5.3850252385
 H       -13.2750658050        8.6895555694       -5.9770922696
 H       -12.7610361716       10.2132623862       -5.0904083721
 H       -14.2351729291        9.0969104689       -4.6598750517
 Na       -9.5763895579        0.3526369818        1.6256760288
