117

 C       -14.0687950920        6.3104431069       -4.9255851885
 C       -12.8379515944        6.7760523840       -3.9897910710
 O       -12.4330170244        5.9828813251       -3.1940390106
 C       -12.3055049737        8.2540679583       -4.0450809090
 C       -12.5934377878        8.9507571449       -2.6523307798
 O       -13.7110823498        9.3941816952       -2.4774312370
 C       -11.5476855835        8.8662611582       -1.5653581980
 C       -12.1005249229        9.1246042755       -0.1653975199
 C       -11.0311785015        9.0119995912        0.8844607966
 O       -10.8247699323        7.9241195653        1.4481105442
 C       -10.0207103053       10.2307528306        1.1810860596
 C        -8.5786373819        9.8193607167        0.5986851780
 O        -8.1310958927       10.3662650653       -0.3428035448
 C        -7.8763869208        8.5618907799        1.2099750592
 C        -6.4782842124        8.3379987510        0.4960385651
 C        -6.2964611741        6.8382209608        0.0979360048
 O        -6.2788423996        6.0201642992        0.9476679533
 C        -6.2164503345        6.4288749654       -1.4945211694
 C        -7.5791135277        5.6171413323       -1.8755362408
 O        -7.9001702324        5.6556619206       -3.0266088463
 C        -8.0714454455        4.5542497370       -0.8548117688
 C        -9.5848777273        4.1332068085       -1.2565543732
 C       -10.0164918489        2.9785105530       -0.3327399000
 O        -9.2083010379        2.3350540071        0.2983363802
 C       -11.6292029575        2.7480865883       -0.0765056048
 C       -11.8827598321        1.2368552432       -0.0195445139
 O       -11.8781409565        0.6585109080        1.0768948545
 C       -12.1917758962        0.4914384592       -1.3518782268
 C       -12.2674839472       -1.0522932725       -1.1386387956
 C       -10.8256783268       -1.4706888348       -0.7730394234
 O        -9.9411635617       -0.7008111993       -0.7481815993
 C       -10.3402386793       -3.0452462797       -0.8500442257
 C        -9.3799026116       -3.1472548548        0.3953967455
 O        -9.7973964625       -3.5595284827        1.4856012226
 C        -7.8469615970       -2.8531702934        0.2729858797
 C        -7.1796724092       -2.9737683238        1.6200531458
 C        -7.4734908261       -1.6979565832        2.4339861199
 O        -7.6434961313       -0.6308234350        1.8765408041
 C        -7.6777702192       -1.7928263817        3.9516114386
 C        -9.2464716678       -1.6027408878        4.2921547847
 O        -9.9576908877       -0.8174052332        3.7829217595
 C        -9.9873471763       -2.4509584124        5.3508428226
 C        -7.1113897795       -3.1307677361        4.5037453439
 C        -7.0790246494       -0.6099956540        4.7426296559
 C       -11.4456166420       -4.1788509410       -0.7367036666
 C        -9.5579497972       -3.2393748301       -2.1640751369
 C       -12.0577374775        3.3352945198        1.3265071817
 C       -12.4662888404        3.3884183695       -1.2289976273
 C        -5.9660538391        7.6291496742       -2.4766883968
 C        -5.0156666401        5.4598961772       -1.5639316706
 C       -10.4668844459       11.5152170090        0.3965240534
 C        -9.9716053285       10.4332626350        2.6888845635
 C       -10.8218157218        8.0791171890       -4.4322191016
 C       -12.9634174680        9.1603006260       -5.0606552257
 H       -14.7865478607        5.9695744767       -4.2004869479
 H       -13.8174891617        5.4981976258       -5.6012022246
 H       -14.4487040928        7.1950585043       -5.4713911092
 H       -10.7200056765        9.5674995887       -1.7531640868
 H       -11.1234940863        7.8580233509       -1.5498290141
 H       -12.8862675415        8.4456352883        0.1268131615
 H       -12.6099083865       10.1370623675       -0.1264623547
 H        -8.4839465477        7.7186440411        1.2644295053
 H        -7.7242590744        8.6282943626        2.3242616878
 H        -5.7321557190        8.6735073375        1.1959408219
 H        -6.2826668737        8.9968259900       -0.3511297524
 H        -8.1280839526        4.8250048223        0.1992995975
 H        -7.3218151333        3.6877024596       -1.0149928809
 H        -9.5065997548        3.6312037524       -2.2528213968
 H       -10.3425383698        4.9082652772       -1.1634988417
 H       -11.4304318804        0.7857189219       -2.1015370776
 H       -13.1809797134        0.8421577465       -1.7279715284
 H       -12.5090135460       -1.5358313301       -2.0762692831
 H       -12.9320084598       -1.4150010660       -0.3892309478
 H        -7.5982911956       -1.9467092549       -0.2368763898
 H        -7.4514236970       -3.6131621534       -0.4080548816
 H        -6.0938673229       -3.0585073623        1.5551666914
 H        -7.3611090929       -3.8174020151        2.3146155810
 H       -10.7213056702       -1.7272436385        5.8086669519
 H        -9.3123101299       -2.7440015285        6.1375210586
 H       -10.5237725475       -3.3149636171        4.9557275653
 H        -7.8494984148       -3.9404334067        4.2751113489
 H        -6.9929777395       -2.9661285135        5.5521486227
 H        -6.2249986801       -3.3603251034        3.9956017966
 H        -7.5973317312        0.3329229029        4.6003676615
 H        -6.1134447034       -0.4915531818        4.4939835834
 H        -7.3529546756       -0.8836727718        5.7822895168
 H       -12.3359852851       -3.9063753704       -1.2311331206
 H       -11.4919054346       -4.2927672984        0.3827556694
 H       -11.1676857353       -5.0494242109       -1.3346696118
 H        -9.5877387998       -4.2825514890       -2.5386728771
 H        -8.5917054924       -2.8879786608       -2.0855556032
 H       -10.0908056912       -2.6784695604       -2.9768100129
 H       -12.7650937960        2.6679004343        1.7809733148
 H       -12.4326079231        4.3895124162        1.2142956618
 H       -11.2206693635        3.4926877681        1.9992873386
 H       -13.5071258447        3.1681671501       -1.0275630879
 H       -12.1080520668        3.2160929383       -2.2260554031
 H       -12.3086262079        4.4585435596       -0.9933581864
 H        -5.0344209615        8.0753840679       -2.0509779141
 H        -6.8351301492        8.3430570054       -2.3600997101
 H        -5.7672420426        7.2736890248       -3.5282197183
 H        -4.9143486769        4.9430349319       -2.5256208829
 H        -5.1598456036        4.7565723443       -0.6042020430
 H        -4.0321534132        5.9958817944       -1.2873673833
 H        -9.7172285329       12.3023352410        0.5250948462
 H       -11.4590971484       11.8463205380        0.6917553106
 H       -10.4721495271       11.2171732796       -0.6404420084
 H       -10.8875243528       10.9070542091        3.0750645675
 H        -9.2350339986       11.1603896734        3.0019888799
 H        -9.9705233191        9.4272036187        3.1724417156
 H       -10.3189623543        7.4024019597       -3.7494311208
 H       -10.2536099516        9.0596150492       -4.4477653987
 H       -10.9327614521        7.6975880426       -5.5167967957
 H       -12.8970925200        8.6466049931       -6.0902718372
 H       -12.4945459307       10.1130750452       -4.9950339092
 H       -14.0105208886        9.2753635921       -4.7806591239
 Na       -9.6497503687        0.5155834591        1.7775419418
