117

 C       -14.1225043533        6.3183584244       -4.8843123612
 C       -12.9269609801        6.8095701057       -4.0429465562
 O       -12.4154904897        6.0079405898       -3.2691698621
 C       -12.3689782665        8.3379360422       -4.0256366787
 C       -12.7151679118        8.9917691187       -2.6580304739
 O       -13.8366923266        9.2954604026       -2.3010343996
 C       -11.5553637117        9.0758919813       -1.6177098395
 C       -12.1204039368        9.1503780343       -0.1619766022
 C       -10.9790907545        9.0483433512        0.9137070653
 O       -10.8193647239        7.9976299541        1.4589311071
 C       -10.0716384147       10.2658033574        1.2423026647
 C        -8.6452578035        9.8999106011        0.6654390785
 O        -8.1307627727       10.6157612611       -0.1942384747
 C        -7.9783941163        8.6176210640        1.1441664428
 C        -6.5968633538        8.2919559161        0.5509463456
 C        -6.3239759404        6.8522634113        0.0867365290
 O        -6.3726206276        5.9978879472        0.9833003147
 C        -6.2313533278        6.3774650039       -1.3828884214
 C        -7.4298504567        5.5826541903       -1.7948817062
 O        -7.7949310146        5.6342753694       -2.9633509102
 C        -8.1840308646        4.6650707546       -0.7210936834
 C        -9.5471619452        4.1813644604       -1.1772327372
 C       -10.0775107652        2.9411622738       -0.3775163865
 O        -9.2527700232        2.2990441105        0.2561465465
 C       -11.5690693655        2.7282155540       -0.1798077134
 C       -11.8697550808        1.1486680353       -0.0720309847
 O       -11.9888748676        0.6559435578        1.0175457111
 C       -12.2817291732        0.3297722050       -1.3645372008
 C       -12.1160850423       -1.1434358698       -1.1398741095
 C       -10.6756682848       -1.6155927043       -0.7657925667
 O        -9.7985585772       -0.7635607076       -0.4408894221
 C       -10.2336056247       -3.1131001981       -0.9843749591
 C        -9.3114855416       -3.2642702094        0.2997387781
 O        -9.8338458188       -3.5496225169        1.3418211205
 C        -7.8215748318       -3.0277990359        0.2104664839
 C        -7.1100699748       -2.9763481528        1.5582219296
 C        -7.5133611008       -1.7917909285        2.4645770985
 O        -7.6373211065       -0.7060639864        1.9193168238
 C        -7.6595284021       -1.9021159445        3.9492147713
 C        -9.2128451642       -1.6611532138        4.2596690949
 O        -9.9169449341       -0.8650933987        3.6091909473
 C        -9.8229925518       -2.2675606845        5.4884800594
 C        -7.1575070178       -3.1603810043        4.6448402454
 C        -7.0177652617       -0.6372758970        4.6649017952
 C       -11.5268484471       -4.0011023256       -0.8416173048
 C        -9.5515968276       -3.2600054080       -2.4227437941
 C       -11.7977608887        3.4848639768        1.1458032413
 C       -12.4647552799        3.3104672567       -1.3136171679
 C        -6.0476558402        7.6741412150       -2.2966171472
 C        -4.9160291837        5.4811032796       -1.5563994790
 C       -10.5158179249       11.6156244678        0.6473657065
 C       -10.0270362175       10.4070093546        2.8419270026
 C       -10.8679182732        8.2169042687       -4.2844838579
 C       -13.0599687015        9.1186463603       -5.1706518306
 H       -14.8294180432        5.8115615403       -4.2211404055
 H       -13.7095746233        5.6387676014       -5.6627365479
 H       -14.5559100425        7.1380010607       -5.4105702552
 H       -10.9317470347        9.9265531365       -1.9208855740
 H       -10.9248246881        8.1860877465       -1.6673012094
 H       -12.9443829766        8.4187707620       -0.0111725345
 H       -12.6373418745       10.0860499378       -0.1515582729
 H        -8.6985780691        7.7528080180        0.8497628839
 H        -8.0723501770        8.5611558298        2.2019046639
 H        -5.7517521964        8.4530013101        1.2897596060
 H        -6.4631601105        9.0124074679       -0.2715054090
 H        -8.3376236905        5.0746339673        0.2832514900
 H        -7.6215208180        3.7795143084       -0.5832754627
 H        -9.4396675525        3.8639288316       -2.1653873628
 H       -10.3515738629        4.8930337870       -0.9976615873
 H       -11.7263441284        0.6790580892       -2.2366853061
 H       -13.3309681053        0.5328664545       -1.5516061358
 H       -12.2494574073       -1.7203003062       -2.1219168851
 H       -12.9016473953       -1.5159439298       -0.4446392326
 H        -7.6176280162       -2.1915459885       -0.5137754134
 H        -7.3763587822       -3.8682151403       -0.3810101567
 H        -6.0379509650       -2.7864106267        1.4025147514
 H        -7.0541611603       -3.8765991152        2.1131848196
 H       -10.8393742747       -1.9823665214        5.6526744566
 H        -9.2321758932       -2.0777335088        6.3968350411
 H        -9.8362026720       -3.3063114255        5.2462218410
 H        -7.4792574517       -3.9680259452        4.0550077735
 H        -7.5264919389       -3.1786832868        5.6687361001
 H        -6.0454089993       -3.1630482044        4.5569757135
 H        -7.2222213416        0.2155724621        3.9814118871
 H        -5.8895574781       -0.7434493363        4.5264449402
 H        -7.4594231091       -0.4024267047        5.5870963971
 H       -12.0745548990       -3.9680006123       -1.7998367648
 H       -12.0482242892       -3.6736296069       -0.0114819356
 H       -11.1769165888       -4.9967227449       -0.6665136440
 H        -9.1775518450       -4.2620591450       -2.5189834341
 H        -8.6063489757       -2.6123625456       -2.3795243043
 H       -10.1471422506       -3.0200188438       -3.2641768942
 H       -12.8890478303        3.5942432625        1.3132796532
 H       -11.2996038493        4.4392755442        1.0706002094
 H       -11.3522427234        2.9834462865        2.0295297953
 H       -13.4800365841        3.2778621773       -0.8972175989
 H       -12.2738051493        2.6362196564       -2.1652233014
 H       -12.2098353134        4.3034253364       -1.5875808810
 H        -5.2116762209        8.2632640304       -1.9756113697
 H        -6.9571017560        8.1668202211       -2.1845295084
 H        -5.8912849413        7.3591958613       -3.3084547966
 H        -4.8656344414        5.0627526121       -2.5737714770
 H        -4.8774146716        4.7747477270       -0.8138319965
 H        -4.0722788155        6.0848784493       -1.3371425854
 H        -9.8991007346       12.3936129973        1.0994893697
 H       -11.5443322310       11.7737042785        0.9371075783
 H       -10.3649557335       11.6416741358       -0.4151324771
 H       -10.7647011389       11.0755089554        3.2178235134
 H        -9.1141826227       10.9353069819        3.0945106131
 H       -10.0760559587        9.4599019399        3.3609873242
 H       -10.4377525728        7.5216883345       -3.4859916783
 H       -10.4455770904        9.2143586136       -4.1991563291
 H       -10.6702540204        7.8144715056       -5.2434579102
 H       -13.0050807828        8.5699055930       -6.0641095960
 H       -12.5708805080       10.0730315904       -5.1889264629
 H       -14.1319598620        9.1915027499       -4.9822506418
 Na       -9.6212150429        0.4078227407        1.5276408860
