117

 C       -13.9572355362        4.1855371914       -0.1782726791
 C       -13.3425467994        2.8619090050       -0.6511470594
 O       -12.7146617520        2.8513554981       -1.6674546380
 C       -13.4736309392        1.6417394884        0.3182830022
 C       -12.2730992871        0.6672850481        0.2939786032
 O       -11.5845191347        0.4688250058       -0.6777553047
 C       -11.8921139916       -0.0764485759        1.5880864608
 C       -10.5842799742        0.7179704983        2.3963811182
 C        -9.5124371600       -0.3205987578        2.8508724728
 O        -9.5501913602       -0.6996462504        3.9789543779
 C        -8.3181398263       -0.9448505823        1.9574711615
 C        -8.5374751293       -0.4486341563        0.2794655947
 O        -8.5166318305        0.7046326869        0.1164579047
 C        -8.9260913376       -1.5064548857       -0.9127082289
 C        -7.9629603245       -1.2540919273       -2.2217804838
 C        -8.6115110936       -0.7234275457       -3.5746706688
 O        -9.6687449386       -0.1558854528       -3.4750385542
 C        -7.9190272171       -0.7756187269       -4.9736713533
 C        -6.9986615919        0.5657123659       -4.7324826147
 O        -6.2280395386        0.5613653786       -3.8008919827
 C        -6.8478299633        1.7716438810       -5.7379585749
 C        -7.8977905621        2.9469999915       -5.7576655013
 C        -8.9921872204        3.3231189457       -4.5173244358
 O        -9.9441243142        2.6873103405       -4.2504362166
 C        -9.0296449595        4.7385102164       -3.9716025404
 C        -9.2793784551        4.7989121999       -2.3443510034
 O        -9.7909255243        3.8847155949       -1.7438658204
 C        -8.4489001049        5.8924267082       -1.4677759916
 C        -8.2777545530        5.4602112885       -0.0550774722
 C        -7.5598221167        6.5774429870        0.7529205003
 O        -7.3543871771        7.6306514701        0.1355854264
 C        -7.4253718305        6.3941454307        2.2309608282
 C        -8.9365942951        6.3729071279        2.7914062977
 O        -9.7081395534        5.4104279994        2.5411972549
 C        -9.3374962761        7.6015164016        3.7043503936
 C       -10.7976877745        7.8848313577        3.9685344035
 C       -11.0567910479        9.3879439530        3.8571160208
 O       -10.2103930874       10.2013820358        4.0749726030
 C       -12.4615899769        9.7962385470        3.0732251961
 C       -13.5650224239        8.8340565004        3.4626935516
 O       -13.8604901872        7.8780789216        2.8024828141
 C       -14.4215952912        9.0543153994        4.8105844657
 C       -12.7380419248       11.2977252143        3.5937875322
 C       -12.0509929652        9.6935062626        1.5750033486
 C        -6.7366698253        4.8919352167        2.4929644043
 C        -6.4885414177        7.4643566781        2.7315948376
 C        -7.7734192227        5.5741361129       -4.1805912161
 C       -10.0724419756        5.6272057819       -4.6782668528
 C        -6.8378880983       -1.8881856435       -5.2118731576
 C        -8.9208294234       -0.6341038552       -6.1010159582
 C        -7.0806164374       -0.1508759623        2.3166935341
 C        -8.3247716128       -2.4981048631        2.1982049629
 C       -13.8711645307        1.8941644093        1.7033721987
 C       -14.6737258134        0.8040971170       -0.4084376997
 H       -14.9932396162        4.1885054882        0.0105005348
 H       -13.8572246112        4.9400604495       -0.9188884526
 H       -13.4023948202        4.5541839709        0.6985632685
 H       -11.5262030882       -1.1045373844        1.2144531358
 H       -12.7251990162       -0.5004833448        2.1857534255
 H       -10.9859894688        1.1234922309        3.3225580917
 H       -10.4303641086        1.4225879427        1.6444416455
 H        -9.8818148536       -1.1264471935       -1.2336383263
 H        -9.1662130936       -2.5459063841       -0.6949004224
 H        -7.3179219211       -2.0790706371       -2.3995510414
 H        -7.4316957915       -0.4464995128       -1.8063982423
 H        -6.7561273071        1.2411921134       -6.7090939663
 H        -5.9108300299        2.3470556009       -5.6618867052
 H        -8.5940268730        2.6774708564       -6.6782559812
 H        -7.2060258785        3.8311764351       -6.0122612302
 H        -8.7537779959        6.8865740455       -1.4837018002
 H        -7.3862819404        5.9710580968       -1.9532066240
 H        -7.5974275333        4.5833501150        0.0542643514
 H        -9.2752239984        5.3734356467        0.3415519922
 H        -8.9094864091        8.5399826761        3.3227974028
 H        -8.9007548851        7.5020361924        4.7171155331
 H       -11.1310114177        7.4575984752        4.9279371575
 H       -11.3355714735        7.3074174472        3.2091810547
 H       -15.0032764830        8.1772825663        5.1224225866
 H       -15.1559951951        9.9011087817        4.4365898061
 H       -13.7853241810        9.1704545061        5.7000420692
 H       -13.4233487431       11.7457885336        2.8275048860
 H       -11.7522557411       11.7862683413        3.6478877917
 H       -13.1144113776       11.1162890888        4.5726960276
 H       -12.1898212180       10.6292033333        0.9497125340
 H       -12.5600211192        8.7919926551        1.1946050275
 H       -10.8434170850        9.4115141794        1.5182243576
 H        -6.5609524051        4.6846647749        3.5178469143
 H        -5.9022381725        4.8473514213        1.9251441131
 H        -7.4106553183        4.0143430306        2.1582797971
 H        -6.2782598132        7.5678331087        3.8343476461
 H        -7.2030279706        8.3588861713        2.6978453819
 H        -5.5547710942        7.5833804531        2.1150097805
 H        -7.6867023350        5.8778869876       -5.1583134546
 H        -6.9295045849        5.1098047781       -3.7328872916
 H        -7.9718250335        6.5536071104       -3.6905914791
 H       -10.0304326456        6.4842697708       -4.0473262990
 H       -11.1489150864        5.3563909265       -4.7200710375
 H        -9.7907361715        5.9097140611       -5.6760408639
 H        -6.1046669829       -1.8685451998       -4.4243312930
 H        -6.3378683699       -1.8341227884       -6.1894005415
 H        -7.2938634803       -2.8930800899       -5.2408148854
 H        -8.9195431048       -1.4557625231       -6.8101403576
 H        -8.7594601332        0.3483944933       -6.5269495852
 H        -9.9043880975       -0.4151470380       -5.6413890282
 H        -6.3407261851       -0.0635854941        1.6038671000
 H        -6.6581222632       -0.4894264681        3.2126445693
 H        -7.3865565741        0.9085506790        2.3437636721
 H        -8.5083961547       -2.7148030149        3.2454998176
 H        -7.3734077016       -2.9104107005        2.0200550118
 H        -9.0643234435       -3.0108717184        1.4719429394
 H       -13.2698235966        2.7596132401        2.1298650462
 H       -13.6736441490        1.0317505373        2.2882911318
 H       -14.8707514329        2.2091851798        1.9452381190
 H       -14.7374609473        0.9736486929       -1.4905508851
 H       -15.5909733736        1.1926919701       -0.0171555769
 H       -14.5973643608       -0.2401237671       -0.0731363334
 Na      -10.6212860941        1.8707863396       -2.2777173512
