117

 C       -14.1623944334        6.3358067152       -4.8092481095
 C       -12.9441181006        6.7755158227       -4.0067690878
 O       -12.4003095995        6.0251042566       -3.2478181638
 C       -12.3924674378        8.2887310810       -4.0227499579
 C       -12.7644150355        8.9322478604       -2.5984242767
 O       -13.9196280316        9.2494101620       -2.3660933656
 C       -11.5728139967        9.1172130453       -1.6068054081
 C       -12.1019602908        9.2175653499       -0.1399647775
 C       -10.9858269359        9.1337746776        0.9158969125
 O       -10.8587288623        8.0399444141        1.4449226821
 C       -10.0627062758       10.3260202581        1.3117129312
 C        -8.6308324637        9.9465699218        0.6942508045
 O        -8.0878936504       10.6084321729       -0.0798774112
 C        -8.0584614447        8.5728391864        1.1223318673
 C        -6.6573539209        8.3683851579        0.5513486958
 C        -6.3551902392        6.8898356725        0.2489624207
 O        -6.3427234092        6.0020403601        1.0437577561
 C        -6.2094480178        6.4881002904       -1.2648925134
 C        -7.4676234167        5.6120924146       -1.7397973289
 O        -7.8488915961        5.5597007757       -2.8704333796
 C        -8.2063689773        4.6566521422       -0.7839777638
 C        -9.5280813857        4.2048516883       -1.2560438563
 C       -10.0157793618        2.9186801936       -0.4039729337
 O        -9.1634332871        2.2863906422        0.1853303199
 C       -11.5894726153        2.6891417813       -0.2726916262
 C       -11.9917333681        1.2469253711       -0.0775351274
 O       -11.9386719703        0.6285111580        0.9738691741
 C       -12.3543842241        0.3491241781       -1.3088618372
 C       -11.9917260064       -1.1205410751       -1.1291969825
 C       -10.5667364487       -1.5423331949       -0.8736467756
 O        -9.6640033923       -0.8834595423       -0.3572789603
 C       -10.2520927647       -3.0752919750       -0.9718242315
 C        -9.3119097624       -3.3446087877        0.2518566697
 O        -9.8373385727       -3.6044859780        1.3182416067
 C        -7.7122513679       -3.0723564719        0.1605154795
 C        -7.0292174192       -3.1185720889        1.4831775310
 C        -7.4306453973       -1.7538178180        2.4069626700
 O        -7.6053588256       -0.7441152696        1.8266999033
 C        -7.6751849088       -1.8475003015        3.9476903826
 C        -9.2740967543       -1.6241117134        4.2836040770
 O        -9.9384911532       -0.9428856137        3.5547553629
 C        -9.8397721888       -2.2437800130        5.5518319469
 C        -7.2100701046       -3.1732795760        4.6463943606
 C        -6.8880605649       -0.6290205123        4.5986194434
 C       -11.4971464296       -3.9771314473       -0.9655293993
 C        -9.5661425459       -3.2904007056       -2.2775657588
 C       -11.8544820262        3.4912870617        1.0971736643
 C       -12.4376532644        3.3564618607       -1.4043673074
 C        -6.1150993294        7.6106393186       -2.3523739665
 C        -4.9308291714        5.5561881694       -1.4589193335
 C       -10.6156454495       11.6597534236        0.7173011883
 C        -9.9371942495       10.2670049291        2.8118056883
 C       -10.8781174141        8.3073219519       -4.3115978003
 C       -13.0596049081        9.2200951338       -5.1320845739
 H       -14.7223322018        5.6512763501       -4.2454160494
 H       -13.5811878763        5.8523182331       -5.6499047301
 H       -14.7935765232        7.0996056287       -5.2818446037
 H       -10.9999104848        9.9469219560       -2.0739696423
 H       -10.9335575917        8.2174018913       -1.6625834209
 H       -12.8232707660        8.4536316543       -0.0015677915
 H       -12.6928437980       10.1418273127       -0.1229609387
 H        -8.7565547739        7.7135260928        0.8857881079
 H        -8.0478421984        8.5436055568        2.2204538073
 H        -5.8220698618        8.6160510302        1.3215806524
 H        -6.5849277919        9.0247913745       -0.3203334717
 H        -8.4487227833        5.1370193972        0.1266151944
 H        -7.6513296937        3.7866948817       -0.4510389567
 H        -9.4464645527        3.8229102318       -2.2797203280
 H       -10.3381741764        4.9687928370       -1.0903049434
 H       -11.8598477648        0.7734244755       -2.1664592363
 H       -13.4326834873        0.4066295000       -1.4990761653
 H       -12.3245064889       -1.8509561694       -1.9808351894
 H       -12.4939104375       -1.4715766240       -0.2838266264
 H        -7.6629350293       -2.1204683627       -0.3454536142
 H        -7.1619235627       -3.6873645468       -0.5460341447
 H        -5.9746710009       -3.2466255965        1.3839978285
 H        -7.2990350905       -4.0036063228        2.0943617385
 H       -10.9662976915       -2.1573605426        5.5600693266
 H        -9.4402131127       -1.7474680078        6.4453478552
 H        -9.6268911579       -3.2612669597        5.5420920240
 H        -7.7212406738       -4.0094644989        4.1234880425
 H        -7.4484676136       -3.1065733642        5.7128068654
 H        -6.1513732629       -3.2983515308        4.4526207828
 H        -7.0448084414        0.2270038085        3.8528036814
 H        -5.8599969192       -0.8011979899        4.5364090109
 H        -7.3132694104       -0.2963337856        5.5564681185
 H       -11.9154965946       -4.0252486984       -1.9734408848
 H       -12.2148928959       -3.5613552137       -0.2097555275
 H       -11.1602864860       -4.9461309121       -0.5618583346
 H        -8.9313382354       -4.1947801780       -2.2020354884
 H        -8.8835958080       -2.4888851466       -2.5298764275
 H       -10.2978255056       -3.3859795139       -3.0866078589
 H       -12.8248129000        3.9179443011        1.1013352072
 H       -11.0711457628        4.2717755092        1.2916548954
 H       -11.7966676329        2.7899697494        1.9069904532
 H       -13.4602518071        3.1552190062       -1.0686556456
 H       -12.1431398381        2.9042073720       -2.3436599496
 H       -12.2811139568        4.4132817694       -1.3966945229
 H        -5.2785159047        8.2087813575       -2.2549415742
 H        -7.0213898367        8.1140521362       -2.2639626798
 H        -6.0852436847        7.1098377773       -3.3033750465
 H        -4.9829048309        5.2304007024       -2.3943201194
 H        -5.0183485298        4.7314856673       -0.7714036613
 H        -4.0089444059        5.9602749717       -1.2236181085
 H        -9.9107584221       12.5038212467        0.9794667246
 H       -11.6223273616       11.8774557932        1.0859070735
 H       -10.5685918316       11.5404972787       -0.3249127929
 H       -10.8252562685       10.6546504625        3.2515229558
 H        -9.1450080725       10.8731554761        3.1878530638
 H        -9.7671545431        9.1995551190        3.1643104137
 H       -10.4190875747        7.5047456997       -3.7800827858
 H       -10.5257197864        9.2840841453       -4.0577262003
 H       -10.6442599727        8.1353067720       -5.3533436525
 H       -13.0182817434        8.6934467066       -6.1467944845
 H       -12.4994677295       10.0698826784       -5.0790080031
 H       -14.1450113833        9.3430499918       -4.9876267110
 Na       -9.6510853840        0.3612508007        1.4782156776
