117

 C       -14.0910294035        6.2823348253       -4.7285835324
 C       -12.8249221185        6.5695802560       -3.9876932702
 O       -12.2503257629        5.7393559098       -3.3140591306
 C       -12.1602470560        7.9565173753       -4.2008877227
 C       -12.1789120110        8.7315316822       -2.8448491169
 O       -12.9055220258        9.6782661603       -2.6470887986
 C       -11.2758775215        8.2896881853       -1.6823958639
 C       -11.7753723054        8.7720599843       -0.3189735955
 C       -10.7256483149        8.6788316299        0.7423029755
 O       -10.5641424785        7.7209224474        1.4913459997
 C        -9.8027706059        9.9129833188        0.8576328919
 C        -8.5032395974        9.3653202787        0.1020603749
 O        -8.4871475789        9.3081758957       -1.1013468691
 C        -7.2871938039        8.9109701258        0.9237030888
 C        -6.1695820524        8.3251790401        0.0727098438
 C        -6.3690671544        6.8269646652       -0.1817282041
 O        -6.6751462935        6.0778938418        0.7397689836
 C        -6.4048604211        6.1748085157       -1.6656085240
 C        -7.8719678063        5.7065844774       -1.8003208406
 O        -8.8056286481        6.5145612674       -2.0360273911
 C        -8.1430955051        4.2738155335       -1.2184059041
 C        -9.6751335636        4.1634768015       -1.1193858698
 C       -10.1799316755        3.2248240497       -0.0097446071
 O        -9.3719111670        2.7533348558        0.7582287622
 C       -11.7204064049        3.0515095410        0.2341838139
 C       -11.9957670088        1.5588577749        0.1247597225
 O       -11.9520440304        0.8159011100        1.1041164775
 C       -12.1279691057        0.7890199421       -1.2360396383
 C       -12.0189268740       -0.7137199652       -0.9514193477
 C       -10.6772205644       -1.2874134867       -0.5388624853
 O        -9.7423902879       -0.5644824746       -0.2277786602
 C       -10.4156499779       -2.8485158010       -0.5129237855
 C        -9.4053238256       -3.1326556529        0.6849075220
 O        -9.8675812674       -3.2322630283        1.7988736000
 C        -7.9155686895       -2.9075855976        0.3633107719
 C        -7.0655722232       -2.7575967389        1.6233357292
 C        -7.4826351019       -1.5370149944        2.5182941582
 O        -7.6839736641       -0.4590916587        1.9348296564
 C        -7.8830797710       -1.6155049075        4.0230515958
 C        -9.5923041437       -1.6420083306        4.0805524787
 O       -10.2019665612       -0.6934970604        3.6247226081
 C       -10.2821058718       -2.8829387548        4.6649664850
 C        -7.2070743925       -2.8566185644        4.7480450517
 C        -7.2463628108       -0.2550440448        4.6268010365
 C       -11.7231961280       -3.6350659681       -0.1903257275
 C        -9.9250056180       -3.2744835393       -1.8986493024
 C       -12.0288925683        3.5116397074        1.6435803315
 C       -12.5612122648        3.7208612375       -0.8628857605
 C        -5.9748704688        7.2132375667       -2.7773516473
 C        -5.3925224076        4.9894350466       -1.5797431929
 C       -10.2177145168       11.1516304291        0.0184482080
 C        -9.5669047030       10.2491683717        2.3533313461
 C       -10.5873900048        7.7577679909       -4.5266992571
 C       -12.6393030166        8.8444288743       -5.3568423024
 H       -14.0773659898        5.2587216818       -4.9537411045
 H       -14.1862731843        6.8440167530       -5.6979780056
 H       -14.8653338211        6.5078147662       -3.9838359104
 H       -10.3492934989        8.8544002443       -1.8136760048
 H       -11.0301003042        7.2404500800       -1.7409711794
 H       -12.6558800468        8.2074963970       -0.0783687223
 H       -12.0728323111        9.8192566116       -0.5625058006
 H        -7.6057063768        8.1994578185        1.6787025961
 H        -6.9764508658        9.8934228716        1.4628571306
 H        -5.1589890563        8.5825607165        0.4708238855
 H        -6.2071725709        8.8715516741       -0.8387116678
 H        -7.7098207857        4.3123998010       -0.2395823264
 H        -7.6933930606        3.5137331301       -1.8901938939
 H       -10.1269723617        3.7638550136       -1.9718762410
 H       -10.0293797126        5.1661394311       -1.1831557480
 H       -11.3508420525        1.1785719428       -1.9091406709
 H       -13.1227593454        1.0062988666       -1.6704849177
 H       -12.2590580574       -1.2550815884       -1.9276508595
 H       -12.6351563496       -0.9639134478       -0.1911237340
 H        -7.8112981924       -1.9998149494       -0.2806574335
 H        -7.4998564125       -3.8364214043       -0.1443582868
 H        -6.0480000852       -2.5335090978        1.3052016454
 H        -7.0029173993       -3.6174412636        2.3234370539
 H       -11.3611105166       -2.8678103561        4.5222433508
 H        -9.9711442173       -2.8275757563        5.7194376768
 H        -9.9100438317       -3.7749580547        4.2984194591
 H        -7.6017210511       -3.8157702399        4.3874081007
 H        -7.5212636365       -2.7505838179        5.7906307761
 H        -6.1288767197       -2.6987007492        4.7385172010
 H        -7.7807582659        0.5325238182        4.0141074404
 H        -6.1432002446       -0.1118091214        4.6040728006
 H        -7.4343314515       -0.1997888903        5.6573338556
 H       -12.5322354801       -3.0453572883       -0.6045168769
 H       -11.8380525646       -3.6688914074        0.8632234006
 H       -11.5931493505       -4.6426390361       -0.5573115757
 H        -9.9061882955       -4.3444999998       -1.9818227346
 H        -8.8746097010       -2.9707297492       -2.1490968005
 H       -10.5316194363       -2.8175749832       -2.6724579620
 H       -13.0578843565        3.4061797414        1.8513172675
 H       -11.8664956981        4.5852972202        1.7916255118
 H       -11.5106292885        2.9202752022        2.3662369881
 H       -13.6460617295        3.7928742099       -0.6155075670
 H       -12.5201893454        3.2545063385       -1.8739716516
 H       -12.2542786217        4.7266917330       -0.9927685471
 H        -5.0443057293        7.6737609604       -2.5669302088
 H        -6.6996379263        7.9506834410       -2.8968737000
 H        -5.8571016347        6.6459386942       -3.7036876202
 H        -5.4670545055        4.3203193656       -2.4439454877
 H        -5.6451509525        4.4502107440       -0.7551566034
 H        -4.4147288230        5.3976723458       -1.4535846359
 H        -9.4279982516       11.9609837824       -0.1276436471
 H       -11.1248856371       11.6104818353        0.4186877961
 H       -10.4214274150       10.7841683898       -0.9378105909
 H       -10.5128148610       10.5608130578        2.7207194224
 H        -8.8497659126       11.0079469011        2.4126649307
 H        -9.1228469348        9.4178049182        2.9427107131
 H       -10.2162288435        6.9504634382       -3.8663427540
 H       -10.0345275333        8.6761051683       -4.5163446466
 H       -10.5777853368        7.3144175882       -5.4777934390
 H       -12.3660122375        8.3673884503       -6.2947740046
 H       -12.2458349894        9.8126342742       -5.4208448200
 H       -13.7201728295        8.9277312661       -5.2722824701
 Na       -9.7240710597        0.6047815793        1.9236874138
