117

 C       -14.0800262605        6.2902266997       -4.8521298351
 C       -12.8420609937        6.6286995908       -4.0188466656
 O       -12.3141757314        5.8448718980       -3.2408502077
 C       -12.1674741250        8.0281357015       -4.1441498334
 C       -12.4423248156        8.7897673821       -2.7615379273
 O       -13.1963190443        9.7376408849       -2.7422674760
 C       -11.5299080694        8.4014861953       -1.5837625070
 C       -12.0318387900        8.8846931474       -0.1688779685
 C       -10.8235027417        8.8487326495        0.8522207961
 O       -10.5656426452        7.8578809983        1.4987494448
 C        -9.8908229209       10.0831917356        0.9225932874
 C        -8.5315590474        9.5602467829        0.2144740918
 O        -8.3305784305        9.7528564410       -1.0020970249
 C        -7.5390613034        8.7454555480        1.0724167465
 C        -6.3375388488        8.2445446285        0.2454794001
 C        -6.3899216791        6.7875686164       -0.0317650303
 O        -6.5848842022        5.9732566371        0.8994718732
 C        -6.2400964659        6.2472591703       -1.5360668249
 C        -7.6628814005        5.6169668566       -1.7739402676
 O        -8.5695005276        6.1866702054       -2.3935551579
 C        -7.9947968487        4.2805172218       -1.0976652656
 C        -9.5818345108        4.0933735260       -1.1380691015
 C       -10.0517445460        3.0904623938       -0.0597346311
 O        -9.3121105542        2.5551666397        0.7311191680
 C       -11.6586177324        2.8837192346        0.1177112515
 C       -11.9595441943        1.3241291557        0.1433957543
 O       -11.8755119761        0.6299844217        1.1225225166
 C       -12.2244198758        0.6795722422       -1.2535164380
 C       -12.1654798972       -0.8471539402       -1.1897289067
 C       -10.7708235521       -1.3402081838       -0.7820301020
 O        -9.8554429375       -0.5164909816       -0.5428014364
 C       -10.4305908333       -2.9048362330       -0.6875748305
 C        -9.4020606737       -3.0665947903        0.5518740786
 O        -9.7917254301       -3.4284405953        1.6221570945
 C        -7.9255158316       -2.7740076365        0.3239552106
 C        -7.1257563751       -2.8778251536        1.6584931360
 C        -7.5013361841       -1.5929425007        2.5175318233
 O        -7.6539648314       -0.5709636149        1.8811121425
 C        -7.8001066339       -1.6908612293        4.0123421068
 C        -9.3657087879       -1.6198530566        4.1452108556
 O        -9.9800666655       -0.5654107408        3.8922435719
 C       -10.1112083397       -2.7091477606        4.8119406593
 C        -7.1770207269       -2.9577608904        4.6608803824
 C        -7.3228132490       -0.4275372044        4.8620016048
 C       -11.7672021419       -3.6872467116       -0.3561601708
 C        -9.7697906725       -3.3446397731       -2.0959685598
 C       -12.0660907558        3.5898242741        1.4797165834
 C       -12.4455964126        3.5086275305       -1.0803557609
 C        -6.0479877647        7.3427349618       -2.6603703588
 C        -5.1314134835        5.0994434013       -1.6608724671
 C       -10.4913999365       11.3567073976        0.2537843668
 C        -9.5772365574       10.2670743047        2.4141383562
 C       -10.6531690823        7.8679070454       -4.4523286878
 C       -12.8163355591        8.9400684834       -5.2533288594
 H       -14.3332735548        5.2502237947       -4.9197445760
 H       -13.6051570432        6.5498315275       -5.8250690177
 H       -14.8578310598        6.9758255170       -4.5768920368
 H       -10.5837154261        8.9363050252       -1.7256407324
 H       -11.2949127144        7.3313210442       -1.5319786380
 H       -12.8838750087        8.2708933852        0.1780227229
 H       -12.3284455819        9.9362474475       -0.2348691976
 H        -8.1147831541        7.9438759498        1.5881426592
 H        -7.2797896771        9.3726993297        1.8847106022
 H        -5.3612383765        8.3581212124        0.7834615975
 H        -6.1482928281        8.9251045977       -0.5375172370
 H        -7.5618931487        4.4213893253       -0.0790196697
 H        -7.5733045764        3.4582836468       -1.7168699727
 H        -9.8462346338        3.7453997886       -2.1540022732
 H       -10.1605917519        5.1113886456       -1.0210662462
 H       -11.3873073607        1.0790375686       -1.8320165933
 H       -13.1799210195        1.0695649174       -1.6922712881
 H       -12.2499736217       -1.2856497406       -2.2031732069
 H       -12.8634870713       -1.2356617940       -0.5116260280
 H        -7.8525833380       -1.8788379961       -0.2812062735
 H        -7.5489297966       -3.6084907417       -0.2636234379
 H        -6.0242990373       -2.9193936988        1.5296837703
 H        -7.3590707955       -3.7751360002        2.2269215739
 H       -11.1613771359       -2.7643398890        4.5610556294
 H        -9.9642289993       -2.4301359920        5.9042369687
 H        -9.6420938697       -3.6764156141        4.6943611195
 H        -7.6868045468       -3.8089834961        4.3090520586
 H        -7.2479613456       -2.8708469443        5.7391819275
 H        -6.1094894033       -2.9002159644        4.4119826117
 H        -7.7487498680        0.4368346431        4.3863107590
 H        -6.2005390959       -0.4313800532        4.7642945339
 H        -7.4927286896       -0.4677311537        5.8841961696
 H       -12.3427973714       -3.9508696654       -1.3057551962
 H       -12.3111392137       -3.1456116567        0.3715688768
 H       -11.3712995960       -4.5860268815        0.1004537458
 H        -9.4434651584       -4.3601472003       -2.0499727733
 H        -8.8441542554       -2.6991084804       -2.3227364416
 H       -10.3999951217       -3.2364687757       -2.9462813292
 H       -13.0519100601        4.0982568330        1.3887754722
 H       -11.3315090537        4.3093749015        1.8546960569
 H       -12.2145150423        2.8357404943        2.2975369236
 H       -13.5157477260        3.1986103126       -1.0048158839
 H       -12.1229607809        3.0076336383       -2.0158549703
 H       -12.3573279690        4.5546073888       -1.1983656157
 H        -5.1636494886        8.0090030925       -2.4900045439
 H        -6.9431487938        7.9837979074       -2.5621835387
 H        -6.1376066271        6.8407728140       -3.6657637569
 H        -5.3056089175        4.5844753066       -2.7191874911
 H        -5.3178720929        4.2874727837       -0.9702667403
 H        -4.0939119375        5.5308540057       -1.8033761812
 H        -9.7558202565       12.1556257600        0.4518796623
 H       -11.4880693823       11.6336600291        0.5610289137
 H       -10.4699815785       11.2115331185       -0.8006557396
 H       -10.3997952754       10.7824487108        2.9178370186
 H        -8.5991521484       10.7713192765        2.5189713325
 H        -9.5153934639        9.2653952637        2.9098755933
 H       -10.1049742847        7.2999165757       -3.6137436719
 H       -10.2568426460        8.9064864325       -4.3265943457
 H       -10.5774022810        7.5183474201       -5.4656248471
 H       -12.7532552940        8.5250563895       -6.2355129588
 H       -12.0695215434        9.7745139967       -5.3552773871
 H       -13.7443005340        9.4736155805       -4.9640485333
 Na       -9.6000545610        0.7463860869        1.9368811441
