117

 C       -14.1681300295        6.3388419555       -4.5673602745
 C       -12.6780232641        6.6106813907       -4.0260475989
 O       -12.2046558722        5.7376072213       -3.2903990146
 C       -11.9504911023        7.9257291370       -4.3348184923
 C       -12.1213292664        8.6038969116       -2.9335889980
 O       -12.8910549541        9.5317085988       -2.8091397932
 C       -11.3297132530        8.0349395850       -1.7842906426
 C       -11.8502334810        8.4588919894       -0.3626971312
 C       -10.7037043383        8.5555214684        0.6549502397
 O       -10.6679634180        7.7786145068        1.5723413175
 C        -9.7010280709        9.8240770770        0.7292783136
 C        -8.2880022498        9.3576225047        0.0496385704
 O        -8.2737659086        9.0955112036       -1.1294136261
 C        -6.9986809971        9.1418836552        0.9125663285
 C        -5.9027880834        8.3649969591       -0.0280491556
 C        -6.2042291365        6.8633928743       -0.1295921787
 O        -6.5426872084        6.2451193925        0.8234286335
 C        -6.3700035601        6.1307711960       -1.6103308908
 C        -7.9540756607        5.7777409910       -1.7297166696
 O        -8.6975973307        6.5738744055       -2.1795610930
 C        -8.3574638767        4.3646555667       -1.2122367513
 C        -9.8880536873        4.1961059414       -1.2033323776
 C       -10.3177142684        3.3483608137       -0.0856859567
 O        -9.4877383440        2.7684082201        0.6435564070
 C       -11.8376772473        3.0865927282        0.2607360121
 C       -12.0244459514        1.5476166211        0.2768563168
 O       -11.9636695457        0.9288581923        1.3093977883
 C       -12.0153351372        0.8198217108       -1.0760323585
 C       -12.0040896005       -0.7307979809       -0.9935594964
 C       -10.6871186408       -1.2916306615       -0.4454175787
 O        -9.8428773824       -0.5031500344       -0.1268374353
 C       -10.4681864421       -2.7954140612       -0.4372127120
 C        -9.3797484481       -3.0342936211        0.7431564580
 O        -9.7162382308       -3.2457361886        1.9047661965
 C        -7.8987856903       -3.0401429636        0.4079112427
 C        -7.1033383778       -2.7377256099        1.6699657800
 C        -7.5795395069       -1.4881106193        2.4387118487
 O        -7.7175255833       -0.5079968935        1.7691155471
 C        -8.0055235001       -1.5560935397        3.9981334803
 C        -9.5960854715       -1.7198803189        3.9966224690
 O       -10.2144517671       -0.7718701054        3.5634830318
 C       -10.1493626723       -2.9653234544        4.9045086676
 C        -7.2929413141       -2.7811621592        4.6941115457
 C        -7.7212562432       -0.1860607606        4.6742968023
 C       -11.7929979465       -3.5299436153       -0.0986106146
 C        -9.8750399879       -3.2602848804       -1.8050365387
 C       -12.0335039120        3.6145154149        1.7045627894
 C       -12.8305449460        3.8004990467       -0.5741862929
 C        -6.1220150304        7.1141597143       -2.7967263236
 C        -5.3941452357        4.9030445742       -1.7050877348
 C       -10.1834057934       11.1191942593       -0.0362552492
 C        -9.4610324222       10.1782448482        2.2718809682
 C       -10.4240044650        7.6419369668       -4.7036942454
 C       -12.6843744664        8.7892393720       -5.3470505372
 H       -14.4372311190        5.2602891466       -4.4171242336
 H       -14.0820827523        6.4885842796       -5.6045501218
 H       -14.8740206227        6.9963460058       -4.0678140253
 H       -10.3098364390        8.4065593331       -1.9444803014
 H       -11.2601623088        6.9464923180       -1.9039830908
 H       -12.5988499824        7.6682541625       -0.1453046835
 H       -12.3606117835        9.3982887319       -0.5018917194
 H        -7.1704303071        8.4625750440        1.7664184275
 H        -6.6400003367       10.0917625179        1.1836389598
 H        -4.9704736476        8.6102783531        0.4471639751
 H        -5.9256632764        8.8151720464       -1.0698119908
 H        -7.8698953717        4.1238630520       -0.2210977045
 H        -8.0193092752        3.6229335496       -1.9436550280
 H       -10.4186398491        3.8136135485       -2.1550502342
 H       -10.5268903613        5.1237712063       -1.1097232981
 H       -11.1863465287        1.2843697812       -1.6333070072
 H       -12.9256544244        1.1153057217       -1.5971419306
 H       -12.1491146407       -1.0692714974       -1.9721986476
 H       -12.8163463952       -1.1406024575       -0.2588328608
 H        -7.7311079055       -2.2557123878       -0.3249048739
 H        -7.6429591533       -4.0371784255        0.1045049997
 H        -6.0642871742       -2.4168968471        1.4625797334
 H        -7.0658737042       -3.5665825721        2.3785217463
 H       -11.2409849226       -2.9468702698        5.0962201625
 H        -9.5699038058       -3.0801581427        5.7899148265
 H        -9.9708283066       -3.8789587744        4.2814536149
 H        -7.7325111607       -3.6845053240        4.2596845082
 H        -7.5349485903       -2.7639820921        5.7500067529
 H        -6.2029608175       -2.7558755010        4.5618458442
 H        -8.1590977912        0.6110061794        4.1313888513
 H        -6.6811561762       -0.0454969592        4.6837547877
 H        -8.0090108062       -0.2279163134        5.7720513064
 H       -12.4520397127       -3.2696715873       -0.8548685824
 H       -12.2200043216       -3.1251883370        0.8311444162
 H       -11.5796688571       -4.5576150954        0.0754645278
 H        -9.1280376492       -4.0714249981       -1.7755343745
 H        -9.3941842134       -2.4880966197       -2.3099053480
 H       -10.7360301574       -3.5012364028       -2.4464638236
 H       -12.5250838266        2.9427035727        2.4399546290
 H       -12.7155878544        4.4661664738        1.7206556728
 H       -11.0634279735        3.8505503689        2.1609413060
 H       -13.8230988704        3.7329261496       -0.1800354304
 H       -12.8734582835        3.4356872378       -1.5827720302
 H       -12.6579267037        4.9110710016       -0.6982383876
 H        -5.1012363864        7.5534730671       -2.6482320211
 H        -6.8674344290        7.9620902260       -2.8108884243
 H        -5.9890744182        6.6212577795       -3.7466046675
 H        -5.6779030152        4.2846648828       -2.5811251160
 H        -5.4494219662        4.2646671340       -0.6972247053
 H        -4.3179220436        5.3023249683       -1.7241299170
 H        -9.6822750120       11.8969977997        0.4409504029
 H       -11.2257750446       11.3594709916        0.1385489686
 H        -9.9387763297       11.2074317897       -1.1223925275
 H       -10.3106457966       10.7802230181        2.6041111024
 H        -8.5409162094       10.7696952452        2.4404127054
 H        -9.2790825876        9.2789531078        2.7914179285
 H       -10.0225262705        6.9074533654       -4.0359137567
 H        -9.9552517084        8.6548671674       -4.7373226425
 H       -10.2533179849        7.1532957718       -5.7326894238
 H       -13.0513721912        8.2666371234       -6.2852145891
 H       -12.0616179293        9.6165083710       -5.6942036494
 H       -13.5910573335        9.1818038010       -4.8787112550
 Na       -9.6841152187        0.8117974868        1.8200090265
