117

 C       -14.1330032160        6.4031634247       -4.5505724760
 C       -12.6365122074        6.5178565303       -4.0472460558
 O       -12.1574905007        5.6578345100       -3.3720458641
 C       -11.9850711842        7.8926421947       -4.3281951910
 C       -12.0492426242        8.6138358051       -2.9568973985
 O       -12.8787773005        9.4812896308       -2.7804576031
 C       -11.1821463720        8.0376768892       -1.7712139299
 C       -11.7761000636        8.4583045566       -0.3625654666
 C       -10.7418388322        8.5923270762        0.7272629738
 O       -10.6856546639        7.7128335782        1.5703785606
 C        -9.5861799755        9.7490168935        0.7433806598
 C        -8.2602172401        9.2377798302       -0.0165432501
 O        -8.2778435277        9.1033442176       -1.1804720482
 C        -6.9321123515        9.1262619307        0.7857055740
 C        -5.8129094185        8.3629947400       -0.0301120210
 C        -6.2902419678        6.9095931160       -0.1749866913
 O        -6.4015008946        6.2402925671        0.8347772013
 C        -6.3922208526        6.2195254609       -1.5755749563
 C        -7.8881807331        5.7593199485       -1.7800826129
 O        -8.7161504036        6.5586687716       -2.2601096530
 C        -8.4298063578        4.4353281966       -1.2531647035
 C        -9.9159013946        4.2938294157       -1.2276756917
 C       -10.3758589762        3.3634623086       -0.0744057159
 O        -9.4816571420        2.7548795633        0.5224686612
 C       -11.9180067307        3.1396763132        0.3732454141
 C       -12.0232832528        1.5896591090        0.4029966013
 O       -12.0607537645        0.9400155437        1.4619918943
 C       -12.0459340212        0.8659796865       -1.0741006189
 C       -12.1037259812       -0.6707829196       -1.0437947917
 C       -10.6873997919       -1.2196902502       -0.4518863749
 O        -9.7988296527       -0.4583732953       -0.2043516484
 C       -10.4431067554       -2.8234924562       -0.3667381735
 C        -9.3945529117       -3.1067367505        0.7788591456
 O        -9.7642545676       -3.2661968645        1.9329643811
 C        -7.8643247568       -3.0325183695        0.4353105773
 C        -7.1157292860       -2.8426983890        1.6754998516
 C        -7.6254749702       -1.5253814429        2.4358592615
 O        -7.7535504453       -0.4316611093        1.8280673843
 C        -7.9931162416       -1.5935872145        3.9231776504
 C        -9.5771309589       -1.7260669103        4.0733606741
 O       -10.3415709684       -0.9600257132        3.5353931612
 C       -10.2189221411       -2.7582478979        4.8684052912
 C        -7.2095892298       -2.7021383619        4.5919752590
 C        -7.8178040496       -0.1774963500        4.6396645225
 C       -11.6883555725       -3.6619928096        0.0170616017
 C        -9.9017526579       -3.2255074397       -1.7407836809
 C       -12.0752214939        3.6518924797        1.8909022081
 C       -12.9163570440        3.7946541466       -0.6117290110
 C        -6.1220641205        7.1460155079       -2.7371018719
 C        -5.4569990904        4.9543016552       -1.6210498591
 C       -10.1165128319       10.9839275231       -0.0513734744
 C        -9.3661527839       10.1497292901        2.1484444651
 C       -10.5496007031        7.5890464905       -4.7646884001
 C       -12.6458029012        8.6863867147       -5.4455261217
 H       -14.6803230364        5.6532737182       -4.0621546300
 H       -14.1620825335        6.3173468776       -5.6527048857
 H       -14.4543553233        7.3941695725       -4.2011820301
 H       -10.1603417393        8.4738481004       -1.9284341696
 H       -11.0667442144        6.9433028134       -1.8711313014
 H       -12.5003114379        7.6995542227       -0.2074456322
 H       -12.3264898548        9.3898196727       -0.5320316894
 H        -7.0686418846        8.5499964223        1.6618902956
 H        -6.5616594271       10.1847498684        0.9369994444
 H        -4.9428643739        8.5070925492        0.6515199954
 H        -5.6645121460        8.8790867987       -1.0222551240
 H        -8.0558840823        4.4255204092       -0.2013700223
 H        -8.0757768447        3.4895070432       -1.7200380034
 H       -10.3921684654        4.0059997873       -2.2393981998
 H       -10.5287955957        5.2055094261       -1.0652969265
 H       -11.1324266705        1.2220192313       -1.5909806920
 H       -12.8682436558        1.2454735819       -1.6418072774
 H       -12.1747631588       -0.9324781027       -2.1663579838
 H       -12.8951776890       -1.1265106359       -0.4491229435
 H        -7.8108165901       -2.1237066197       -0.0977399642
 H        -7.4778542136       -3.8983871414       -0.0602591467
 H        -6.0595071075       -2.7415903998        1.5784586489
 H        -7.3485082282       -3.6702934500        2.3770169936
 H       -11.3417716454       -2.5653526850        4.7860442290
 H        -9.8512477851       -2.9033618440        5.9018928207
 H       -10.0560159828       -3.6552553283        4.3100814825
 H        -7.5204682761       -3.7406120322        4.2871255976
 H        -7.2432288696       -2.5863271421        5.6678417840
 H        -6.2110313059       -2.5197839476        4.2543301441
 H        -8.3143197967        0.6220532859        4.0081570196
 H        -6.8104386270        0.1241276998        4.7288685274
 H        -8.2629264875       -0.2557438344        5.6293799782
 H       -12.2987375264       -3.7730408461       -0.8868449257
 H       -12.3191290302       -3.0550518760        0.7062659189
 H       -11.3872960536       -4.5788697152        0.5862739845
 H        -9.1714570251       -4.0373846380       -1.7001624657
 H        -9.4030094071       -2.4491615168       -2.2756477700
 H       -10.7752280722       -3.5221526651       -2.3487792156
 H       -12.4288712939        2.8996587315        2.5753764625
 H       -12.9080624203        4.4153842934        2.0027897237
 H       -11.1311380293        3.9980250391        2.3053184528
 H       -13.9455063094        3.4850400179       -0.4606373777
 H       -12.6635908502        3.6005062799       -1.6420104211
 H       -12.9746935309        4.8806204688       -0.5655644241
 H        -5.0374954281        7.3816382395       -2.8152081140
 H        -6.7287093898        8.0797257252       -2.7132032715
 H        -6.2280015645        6.5457033223       -3.6945624589
 H        -5.7240775862        4.2954786276       -2.4599327128
 H        -5.5149189951        4.4566032995       -0.6759315659
 H        -4.4023472491        5.3213067229       -1.6494064162
 H        -9.6416937217       11.9205397419        0.2925705258
 H       -11.1761494839       11.1610229730        0.1666879206
 H        -9.9539901370       10.9050130154       -1.0999375339
 H       -10.2426849142       10.7375341421        2.4356217022
 H        -8.5266175048       10.8352323359        2.2389549964
 H        -9.0853175123        9.2444748952        2.7754141101
 H       -10.0886825886        6.8607121219       -4.1009034209
 H       -10.1658283470        8.6053796275       -4.7917452412
 H       -10.3765808967        7.1487940855       -5.7789823647
 H       -12.8868999510        8.0793129837       -6.4157223991
 H       -11.9510983497        9.4200459833       -5.7358946102
 H       -13.6176210224        9.1935029079       -5.1721399284
 Na       -9.6534224979        0.9295993057        1.9168392782
