117

 C       -14.3308691331        6.3690103271       -4.2126075964
 C       -12.7726251671        6.3567343588       -4.1657661322
 O       -12.2355387210        5.3307307949       -3.7229751577
 C       -12.0616131494        7.6278017052       -4.4998139141
 C       -12.0949385229        8.3861978115       -3.1357209293
 O       -13.0005720559        9.1444239766       -2.9071173775
 C       -11.0084333416        8.0940519890       -2.1178914396
 C       -11.4075342499        8.6789226098       -0.7478615194
 C       -10.3207647329        8.5200814839        0.4174126799
 O       -10.1368661574        7.4983299276        0.9898703135
 C        -9.3789735363        9.7099129709        0.6118505369
 C        -8.1098045788        9.2525741430       -0.0802876873
 O        -8.0865878385        9.1674387883       -1.2852543700
 C        -6.8100066653        8.9627937238        0.7242013660
 C        -5.7377987882        8.2784236357       -0.1208383151
 C        -6.0746991927        6.8347053222       -0.2794642073
 O        -6.0349671073        6.1492619424        0.7185723392
 C        -6.3191395454        6.1147680325       -1.6562713108
 C        -7.7993096236        5.6901458492       -1.7235619204
 O        -8.5902574864        6.0256166253       -2.5591254114
 C        -8.3101475697        4.7769087609       -0.5868130419
 C        -9.8133113568        4.7610504264       -0.4256319342
 C       -10.3102988635        3.5199166311        0.3110188156
 O        -9.4318331889        2.7230034584        0.6681108627
 C       -11.8637964850        3.2504303642        0.4632225773
 C       -12.0820754671        1.6960604980        0.5201248317
 O       -12.1264026333        1.1919454640        1.6404288236
 C       -12.4251010587        0.8463078311       -0.8042481516
 C       -12.3731548066       -0.6529917802       -0.5749225640
 C       -10.9577273318       -1.2323896054       -0.2933388700
 O       -10.0064923694       -0.4583975806       -0.2913754113
 C       -10.6995815014       -2.8030274705       -0.3314754750
 C        -9.5148786556       -3.1229011234        0.7816635239
 O        -9.7372738925       -3.6709397337        1.8524388461
 C        -8.0656733274       -2.6432184229        0.4767835922
 C        -7.3298487398       -2.4808980812        1.8025588019
 C        -7.6930384430       -1.2172154770        2.6145261518
 O        -7.6257248469       -0.1967818230        2.0165375383
 C        -8.1952496104       -1.3380398741        4.1432457710
 C        -9.7021308124       -1.6051812299        4.0895945600
 O       -10.3752453446       -0.7682977698        3.4593510102
 C       -10.3400821620       -2.6126796923        5.0338735448
 C        -7.3031608251       -2.4691956854        4.8045888020
 C        -7.9788189274        0.0554429923        4.8525729804
 C       -11.8519784235       -3.7592990267        0.0875988234
 C       -10.1171746988       -3.0510355796       -1.7696808588
 C       -12.2945540112        3.8821786178        1.8165247746
 C       -12.7204120162        3.8735060003       -0.6498171304
 C        -6.0387033840        6.9786705182       -2.8797379828
 C        -5.4183685715        4.8120815253       -1.7124132535
 C        -9.8166290994       10.9733751953       -0.1264230249
 C        -9.2215955530       10.0481370573        2.1841692506
 C       -10.5907440231        7.3196611948       -4.9506602437
 C       -12.8182130112        8.3441316961       -5.6345316248
 H       -14.8070444107        5.4001244033       -3.9386677865
 H       -14.5297479612        6.7149974881       -5.1765346044
 H       -14.6979708416        7.1225604546       -3.5055190874
 H       -10.0145944446        8.4926691016       -2.3989269412
 H       -10.8055649468        7.0045023132       -2.0155696296
 H       -12.3163189278        8.1154251661       -0.4635473997
 H       -11.7503160402        9.6877969838       -0.8209117112
 H        -7.0751166342        8.1432656923        1.5044538633
 H        -6.4596567837        9.9417769293        1.0698165401
 H        -4.7743242959        8.3373578792        0.3562336902
 H        -5.8393090113        8.7877911524       -1.1069609726
 H        -7.8581308185        5.0752443608        0.3684956662
 H        -7.8600222236        3.7793127700       -0.6882713229
 H       -10.2805793895        4.9090723635       -1.3562147362
 H       -10.1981770863        5.6177528940        0.1343841669
 H       -11.6749633827        1.1589715189       -1.5132384324
 H       -13.3640382027        1.3068977226       -1.1503653912
 H       -12.6936696246       -1.1544932537       -1.3978250027
 H       -13.0264383885       -0.9973166452        0.2822569930
 H        -8.1707579477       -1.6639256040       -0.0311439870
 H        -7.5346906318       -3.3844633502       -0.1297721998
 H        -6.2596069163       -2.3792710967        1.5673011608
 H        -7.4484968627       -3.3947656825        2.3462419410
 H       -11.4569120042       -2.5480656910        4.9728339374
 H       -10.1300621521       -2.2882154252        6.0254269824
 H        -9.9566426349       -3.6570579154        4.9466886325
 H        -7.4895348437       -3.5055997603        4.5106556308
 H        -7.3612386661       -2.4059466094        5.8918700462
 H        -6.2385890813       -2.2880883926        4.5630323279
 H        -8.5723766780        0.8525191506        4.4004413528
 H        -6.9378614956        0.3053406142        4.8404010217
 H        -8.5022994026        0.0886341234        5.8815042446
 H       -12.6051638447       -3.9305635122       -0.6806201308
 H       -12.3420339802       -3.2049754526        0.9715284288
 H       -11.5301289314       -4.7958546310        0.3376475290
 H        -9.5271215034       -3.9926593621       -1.8682952118
 H        -9.5397477812       -2.2143909277       -2.0286224341
 H       -10.9134133677       -3.1931039149       -2.5134549597
 H       -11.4600695542        3.8356233982        2.5485210343
 H       -13.1327042219        3.3871177627        2.2877974810
 H       -12.6509909821        4.9025166424        1.7059306899
 H       -13.7336957222        3.5410861584       -0.6653279732
 H       -12.3630945399        3.7402291925       -1.6489567339
 H       -12.7891974275        4.9877804918       -0.5562707380
 H        -4.9478832949        7.2036445881       -3.0257566436
 H        -6.6152719539        7.9507857007       -2.8945136466
 H        -6.4915076550        6.5265434581       -3.7408043239
 H        -5.8130142631        4.1470779099       -2.3749287140
 H        -5.3481000483        4.3948428651       -0.7247248529
 H        -4.4659137683        5.0571467307       -2.0869168389
 H        -9.2523388341       11.8118102673        0.1819205083
 H       -10.8700002642       11.1760044442        0.0733777763
 H        -9.7287038450       10.9352265853       -1.2530968757
 H       -10.1556863163       10.4173453374        2.6471389081
 H        -8.3984624341       10.8067906259        2.3242712212
 H        -9.1018394218        9.1562350881        2.7506527620
 H       -10.1161692570        6.5762618186       -4.3491969891
 H        -9.9743214094        8.2298983197       -4.9381996020
 H       -10.6426973230        7.0076950814       -6.0198539952
 H       -13.0871110990        7.6469713571       -6.4775025513
 H       -12.2599260173        9.1834888549       -5.9741593088
 H       -13.7644421080        8.8016809670       -5.4037761938
 Na       -9.7504001299        0.7859468974        1.6500245066
