117

 C       -14.4364105749        6.2148398097       -4.1525925890
 C       -12.9398527299        6.2031818931       -4.1422371859
 O       -12.2512002171        5.2567787674       -3.6643232032
 C       -12.1183539417        7.4950347864       -4.5265813875
 C       -12.1254438923        8.3442858886       -3.2214384505
 O       -13.1582739854        8.9345409340       -2.9755936316
 C       -10.9814775418        8.3123998302       -2.2360962861
 C       -11.4011399707        8.7921206246       -0.8161971537
 C       -10.2842293955        8.6205227195        0.1806934864
 O       -10.0721074684        7.5857172687        0.7293044525
 C        -9.2820292630        9.7516154856        0.4715670694
 C        -7.9772680687        9.3784176783       -0.2825749701
 O        -7.8800388629        9.4219017012       -1.5069825052
 C        -6.8240579117        9.0286462356        0.5954886111
 C        -5.6009785983        8.3556608239       -0.2224226747
 C        -5.7106826823        6.8040918579       -0.2610269444
 O        -5.4247815673        6.1098834448        0.6761999656
 C        -6.1906971404        6.0127087515       -1.6039030839
 C        -7.7363280989        5.5865372805       -1.6182837013
 O        -8.4604836583        5.8483917188       -2.4911162347
 C        -8.2418009268        4.6378506788       -0.4192554216
 C        -9.7964632420        4.5698932325       -0.5119596450
 C       -10.3824367914        3.4239419627        0.3726617580
 O        -9.6133922701        2.7623878360        1.0902648101
 C       -11.9271653491        3.2905515126        0.3944842212
 C       -12.1479279727        1.7914364428        0.5554807901
 O       -12.0420371974        1.2316623551        1.6564450277
 C       -12.6007371058        0.8677971549       -0.6326568285
 C       -12.4126231965       -0.5967783130       -0.2286857294
 C       -11.0384188619       -1.1860667171       -0.3905923502
 O       -10.1054363308       -0.3608264566       -0.3072575302
 C       -10.7134962338       -2.7395616051       -0.3474662589
 C        -9.6839039213       -2.9928481120        0.7979723291
 O       -10.0591625180       -3.5908764201        1.7908294356
 C        -8.2809480248       -2.4606556460        0.5917855271
 C        -7.4408995303       -2.3839422445        1.8630270692
 C        -7.7267875441       -1.1301043451        2.6773340518
 O        -7.4684271583       -0.0576759732        2.1737432988
 C        -8.1525976024       -1.2593622969        4.1422813863
 C        -9.7093539398       -1.4379515588        4.2212217019
 O       -10.4574739608       -0.8884539458        3.4251612509
 C       -10.3757428967       -2.6330685075        4.9425834036
 C        -7.4071331921       -2.3787302694        4.9400892640
 C        -7.7911857974        0.1000057704        4.8070492760
 C       -11.9848205239       -3.4965900076       -0.0303422425
 C       -10.0930322282       -3.2196692429       -1.6509669398
 C       -12.4205748346        4.0564301202        1.6953411339
 C       -12.6703584993        3.7805518425       -0.8604569013
 C        -5.9370868012        6.9249136608       -2.8302731993
 C        -5.3475860202        4.7119551117       -1.8085360796
 C        -9.7663479751       11.1504860388       -0.0326896747
 C        -9.1708957540        9.7264735195        2.0430511805
 C       -10.7140179568        6.9908169440       -5.0642513114
 C       -12.8071663363        8.3161972715       -5.6277488056
 H       -14.6185549778        5.2962028716       -3.5213460001
 H       -14.9385671316        6.1902178876       -5.1094623504
 H       -14.7252128714        7.0760005589       -3.5618064972
 H       -10.1149577031        8.8154816961       -2.6886015285
 H       -10.5974959849        7.2961455976       -2.0428547125
 H       -12.1559969017        8.0932833031       -0.4561947091
 H       -11.8609938287        9.7851305888       -0.7602675242
 H        -7.1663729617        8.4196351462        1.4471276451
 H        -6.4824156552        9.9849448193        0.9628675802
 H        -4.7177971967        8.7213974492        0.3633827011
 H        -5.6350730885        8.7407091520       -1.2347134853
 H        -7.8852219545        4.9429222668        0.5671815536
 H        -7.7813072766        3.6337407279       -0.5834361465
 H        -9.9956285095        4.4248136639       -1.5993144691
 H       -10.2867478378        5.6198709187       -0.2544470405
 H       -11.9160386535        1.1612744960       -1.3982825820
 H       -13.6130562637        1.1204099142       -1.0394208867
 H       -13.1843874241       -1.1850279286       -0.7455731094
 H       -12.6241734135       -0.7889293461        0.8804954055
 H        -8.3552859335       -1.4504566547        0.1762281518
 H        -7.9415937584       -3.1090859271       -0.1941566709
 H        -6.3699127653       -2.1778963964        1.5309610042
 H        -7.3966208643       -3.3339535570        2.3467337444
 H       -11.3828710598       -2.2844552161        5.1008214668
 H       -10.0525179056       -2.9441081202        5.9030280472
 H       -10.3623979867       -3.5061313446        4.2426550324
 H        -7.3955593486       -3.3619867494        4.5526324383
 H        -7.7008445960       -2.4622012561        6.0012220165
 H        -6.3306291263       -2.0727447868        5.0188117515
 H        -8.2499636091        0.9422346993        4.4169114316
 H        -6.7203868041        0.2008872475        4.8894274069
 H        -8.1259555891        0.0779155532        5.8887016236
 H       -12.7783215007       -3.2237092050       -0.6792916280
 H       -12.3629717115       -3.2805319985        0.9843188670
 H       -11.9228890170       -4.5531116774       -0.1117478676
 H        -9.9123406001       -4.2871359373       -1.5247373936
 H        -9.1465668860       -2.7066885134       -1.8811232697
 H       -10.7408496539       -3.1102917401       -2.5228920063
 H       -11.5245513936        4.2730187924        2.3311465963
 H       -13.1168125388        3.4493843217        2.2057774994
 H       -13.0378041731        4.9381405795        1.4804938335
 H       -13.7381788646        3.6908214366       -0.6431725266
 H       -12.6016760197        3.1127560181       -1.7276861675
 H       -12.4913892334        4.7828943813       -1.2412306793
 H        -4.9969283018        7.4547411281       -2.7578033535
 H        -6.6625715918        7.7405607380       -2.9307114720
 H        -5.9972350199        6.4209509928       -3.7482322092
 H        -5.4397440205        4.2318326014       -2.8072938214
 H        -5.6632107260        3.8641454272       -1.0544851261
 H        -4.2588295160        5.0819752847       -1.7274748479
 H        -8.9474782830       11.8476037705       -0.0481559799
 H       -10.5016741060       11.5190334425        0.6351730735
 H       -10.2671804608       11.1968086964       -1.0224132012
 H       -10.1484804179        9.9752375359        2.4233766864
 H        -8.4308593301       10.4385819821        2.4443112215
 H        -9.0083536063        8.7679135814        2.4127449349
 H       -10.0668821091        6.7114014593       -4.2583866860
 H       -10.0780973984        7.8402688597       -5.4339988992
 H       -10.9198173532        6.2480722938       -5.8355203635
 H       -13.0211244942        7.8243406017       -6.5768668211
 H       -12.2919563849        9.2425178499       -6.0107425496
 H       -13.7707684504        8.7135856032       -5.2659031013
 Na       -9.8443299379        0.6010860298        1.9063217492
