117

 C       -14.3892171150        6.3119663565       -4.2567523712
 C       -12.7922307831        6.3557071017       -4.1069494038
 O       -12.2035817235        5.3351282145       -3.7530495064
 C       -11.9924567314        7.6594204831       -4.5196715171
 C       -12.0361866819        8.5033776282       -3.1539141250
 O       -12.9934237297        9.2253789800       -2.9346328839
 C       -11.0290394520        8.0995049785       -2.0126712485
 C       -11.4282195807        8.5980435141       -0.6053132781
 C       -10.3754379677        8.4934975678        0.4626580559
 O       -10.2064968124        7.5244937645        1.1728232776
 C        -9.4166763344        9.7466141928        0.6067674094
 C        -8.1086196443        9.2939479449       -0.0413271528
 O        -8.1196708286        9.0852759807       -1.2699772034
 C        -6.8218557486        9.0018126195        0.7514311235
 C        -5.7536249655        8.2848911079       -0.1078160168
 C        -6.0715055787        6.7844942322       -0.2913458119
 O        -6.3026874651        6.1412764374        0.7071381177
 C        -6.3434244995        6.1176800283       -1.6974630987
 C        -7.8560155685        5.7220764040       -1.6679087406
 O        -8.5597644911        6.1349438942       -2.5188506122
 C        -8.3385135702        4.7971637899       -0.5625572273
 C        -9.8342847673        4.8275770812       -0.4825631186
 C       -10.3391724246        3.4366755649        0.2023372437
 O        -9.4290749452        2.7452928454        0.5856370176
 C       -11.8500760045        3.2248874453        0.4856932799
 C       -12.1346194034        1.6809287981        0.5204706906
 O       -12.1095940659        1.0452522708        1.5387857000
 C       -12.3926228460        0.8426012379       -0.7639759475
 C       -12.2852761434       -0.6338294485       -0.5736569334
 C       -10.8874634718       -1.2414077312       -0.3389582717
 O        -9.9195274049       -0.4783607324       -0.2208677878
 C       -10.5725633839       -2.7566973804       -0.2634494628
 C        -9.5056500120       -3.0467930500        0.7409218447
 O        -9.8384181472       -3.6202247262        1.7574470879
 C        -8.0226712262       -2.7092896513        0.4872358492
 C        -7.2013190964       -2.6070952222        1.8199381824
 C        -7.6427288372       -1.2549541064        2.5767518790
 O        -7.6812037341       -0.1696395676        2.0347849273
 C        -8.1055172357       -1.3443080122        4.0212881633
 C        -9.7033240522       -1.5401803838        4.0759789083
 O       -10.4222258725       -0.8682108272        3.3849171709
 C       -10.4243009435       -2.5863683947        5.0087911808
 C        -7.2555602279       -2.4441490360        4.8237534245
 C        -7.8575994338       -0.0474650180        4.7485282424
 C       -11.7584704985       -3.6675231826        0.1391603412
 C       -10.1380348050       -3.0878592494       -1.7610537024
 C       -12.2197528373        3.7729642180        1.8354685961
 C       -12.7079729911        3.8103169336       -0.6257312783
 C        -5.9490483467        7.0576480256       -2.9033256279
 C        -5.4903681705        4.8161437736       -1.8083366865
 C        -9.8905018497       11.0194885828       -0.1348767517
 C        -9.2339843483       10.0266543436        2.1546088284
 C       -10.5499972527        7.3604640109       -4.9300550698
 C       -12.7558868651        8.4078465982       -5.6056372406
 H       -14.8629901621        5.4591020686       -3.7483925656
 H       -14.5965979166        6.4734241423       -5.3162598070
 H       -14.7131429634        7.1680113450       -3.7044268211
 H       -10.0365837736        8.5951067381       -2.1503962477
 H       -10.7742308675        7.0203996185       -2.0768971862
 H       -12.2982408301        8.0539059943       -0.3124433010
 H       -11.7702548756        9.6325812092       -0.6722729546
 H        -7.0608673508        8.3086270924        1.5740404810
 H        -6.4744925983       10.0326156055        0.9687655615
 H        -4.7551126654        8.2818892217        0.4579608668
 H        -5.7582711474        8.8661520591       -1.0144300041
 H        -7.8660059911        4.9584421398        0.4046120232
 H        -7.9060410698        3.7840833018       -0.8111337666
 H       -10.2127602164        4.9851855238       -1.5001000331
 H       -10.2369828966        5.7899315239       -0.0057693886
 H       -11.6984530896        1.2289557962       -1.4782370018
 H       -13.3832183512        1.1700730309       -1.1176679980
 H       -12.7582212876       -1.1364198850       -1.4679448764
 H       -12.8217339652       -0.9509870802        0.3265445492
 H        -7.9714345622       -1.7880106843       -0.0575337059
 H        -7.5996187187       -3.5345084310       -0.0547979071
 H        -6.1404349051       -2.6787248079        1.5472010193
 H        -7.4703395835       -3.4452617018        2.4325345589
 H       -11.4789616501       -2.5042426703        4.8791069432
 H       -10.2313504718       -2.3966360402        6.0992129079
 H       -10.0538466642       -3.6407802089        4.8255236465
 H        -7.2508290225       -3.4351862991        4.4599450122
 H        -7.6042268095       -2.4162234296        5.8741472556
 H        -6.1733062885       -2.1554343622        4.8560376224
 H        -8.4084719931        0.7795113457        4.3997608271
 H        -6.7743078046        0.2618129628        4.8147191359
 H        -8.3892129327       -0.2021076247        5.6708618608
 H       -12.5954731703       -3.5604878312       -0.6216375320
 H       -12.1215764681       -3.3632384111        1.1333413765
 H       -11.5294924671       -4.7340585231        0.0701678399
 H       -10.0453198395       -4.1423269288       -1.8776098237
 H        -9.1575514081       -2.5784737683       -2.0110549823
 H       -10.8828673879       -2.8386896652       -2.4742497642
 H       -11.6053720348        3.2360578379        2.6154125813
 H       -13.2448910499        3.5791256677        2.0793270853
 H       -12.1116240830        4.8878115901        1.9449471941
 H       -13.7788072276        3.7231568310       -0.4052219564
 H       -12.5626329405        3.3578186073       -1.6166749104
 H       -12.5691758810        4.8385410513       -0.8204215180
 H        -4.8513496995        7.3147843626       -2.9441243488
 H        -6.5649857406        7.9895527674       -2.9394920516
 H        -6.3073209921        6.6085271938       -3.8659007414
 H        -5.8591667796        4.1992780700       -2.6197848981
 H        -5.3973822453        4.2948408421       -0.7976392749
 H        -4.4969701515        5.1270386581       -2.1212753217
 H        -9.3102228546       11.9180239404        0.1000111085
 H       -10.9255311663       11.2518508025       -0.0282834485
 H        -9.7366034412       10.8640325620       -1.2020886408
 H       -10.1176521123       10.4932049663        2.6155285978
 H        -8.3729405874       10.7233538977        2.2902932952
 H        -9.1732143002        9.1042660469        2.7247387539
 H       -10.1564576295        6.3970376276       -4.4841950362
 H        -9.8911365123        8.2533717183       -4.6405257217
 H       -10.4643823056        7.3145959143       -6.0222358407
 H       -12.9900509317        7.8021030550       -6.4268042214
 H       -12.2604505825        9.4295770044       -5.9054549411
 H       -13.7744886627        8.7464155458       -5.3229392789
 Na       -9.8504588393        0.7995622321        1.7231696206
