117

 C       -14.5620255496        6.0799002517       -4.1496420681
 C       -12.9922146053        6.1031040168       -4.0758000671
 O       -12.4502906099        5.1080485694       -3.5977397110
 C       -12.1406463556        7.2933098519       -4.6014172432
 C       -12.2372318563        8.2693218632       -3.3395467047
 O       -13.2719548696        8.8504238334       -3.0407272682
 C       -10.9504785742        8.4393569077       -2.4588109082
 C       -11.3569594696        8.8270096204       -0.9815825384
 C       -10.2390661191        8.6287510966        0.0243782060
 O       -10.0926203233        7.5156828961        0.5264276956
 C        -9.1839466076        9.7421645357        0.4219701586
 C        -7.8657854412        9.3962794455       -0.3505477287
 O        -7.7425264339        9.6015797579       -1.5535130754
 C        -6.6891941457        8.8370631332        0.5015170713
 C        -5.5243457466        8.2411673043       -0.3205752949
 C        -5.5700654624        6.7101497310       -0.4065108181
 O        -5.4540828205        6.0818251115        0.6042666550
 C        -6.0131744444        5.9712072401       -1.6865743561
 C        -7.5890039943        5.6298655209       -1.5536985327
 O        -8.3617741614        6.0537146659       -2.3305697797
 C        -8.1773611455        4.7500304817       -0.3468490886
 C        -9.7440250543        4.5460186365       -0.6213234537
 C       -10.2942708020        3.5221754838        0.3787015373
 O        -9.6104800940        2.9391762123        1.2102742550
 C       -11.8545687319        3.2491995792        0.3684916850
 C       -12.2249931040        1.7579409224        0.6336376998
 O       -12.2124585674        1.4087941661        1.8078457310
 C       -12.7837151604        0.9125910126       -0.4758680553
 C       -12.6028829869       -0.5888505332       -0.1906176963
 C       -11.1568130421       -1.1262023847       -0.2969015371
 O       -10.2027035688       -0.3387607017       -0.3081040285
 C       -10.7913717806       -2.6381279369       -0.3162478398
 C        -9.7452237324       -2.8658944719        0.8997382797
 O       -10.1732645802       -3.2423546897        1.9849319767
 C        -8.2165025806       -2.5885224793        0.6560426776
 C        -7.4314488996       -2.6276401271        2.0298118933
 C        -7.6967459336       -1.2742846049        2.7409426781
 O        -7.7643814769       -0.1996163013        2.1416877932
 C        -8.1504617761       -1.2924243646        4.2620078841
 C        -9.7124837355       -1.5553171519        4.2299600892
 O       -10.3626504282       -0.8422180201        3.5288487841
 C       -10.2280484476       -2.7472075063        5.0959524720
 C        -7.3135913013       -2.3291493342        5.0702949018
 C        -8.0987292562        0.0624742150        4.9834391494
 C       -12.0272120935       -3.4591160563       -0.0608154311
 C       -10.2983796600       -2.8627505323       -1.7999316203
 C       -12.4324951084        4.1464253283        1.5403453092
 C       -12.3862560495        3.7230425461       -1.0111259691
 C        -5.9352266634        6.7175129356       -3.0127775836
 C        -5.1649444654        4.6457315724       -1.7663462227
 C        -9.7074250662       11.1437888400       -0.0309450732
 C        -8.9885976173        9.7506684458        1.9854819022
 C       -10.6543102212        7.0006071769       -4.8799691313
 C       -12.8936017558        7.9913758274       -5.7495597130
 H       -15.0281707757        5.2593512502       -3.5882103149
 H       -14.9396071676        5.9622016666       -5.1867481346
 H       -14.8137954138        7.0599423015       -3.8051315810
 H       -10.2935069143        9.1683523358       -2.9139962838
 H       -10.4222517957        7.4983319543       -2.4754501686
 H       -12.1867949387        8.2885054748       -0.5249148862
 H       -11.6355444903        9.9052975364       -1.1751263349
 H        -7.0907469596        8.2189249732        1.2548106910
 H        -6.3350609811        9.7389209344        1.1107715089
 H        -4.5624031176        8.5683766299        0.1572080672
 H        -5.5230435918        8.7060541345       -1.2651976275
 H        -7.9961636772        5.2249827233        0.6016617223
 H        -7.7353366761        3.7751603782       -0.3057361844
 H        -9.8824784215        4.1318662248       -1.6364640851
 H       -10.2151606015        5.4742814153       -0.5598325133
 H       -12.3021113570        1.2548272995       -1.4050679008
 H       -13.8641956201        1.1629268077       -0.5455831786
 H       -13.2153640265       -1.1415967686       -1.0032611107
 H       -13.0515416950       -0.9515355277        0.6834249900
 H        -8.1957318580       -1.6064514380        0.1261891939
 H        -7.8232359166       -3.3106384293       -0.1130189481
 H        -6.4244840753       -2.9835579267        1.7411591664
 H        -7.7976320828       -3.5050267179        2.6223611302
 H       -11.2481381460       -2.6881725617        5.3497751017
 H        -9.7248700468       -2.9470905850        6.0522475023
 H       -10.0691958861       -3.6224196886        4.4437296947
 H        -7.5740618637       -3.3585245322        5.0198880392
 H        -7.3995192489       -2.1345184344        6.1473819377
 H        -6.2141722784       -2.2989601870        4.9121675241
 H        -8.7136562683        0.8382051500        4.5486384801
 H        -7.0270096503        0.4232413796        5.1361240618
 H        -8.2928148382       -0.0820311272        6.0384865400
 H       -12.7767904659       -3.5042852062       -0.8956810775
 H       -12.6224926254       -3.2044243169        0.8216584596
 H       -11.7353669973       -4.4589918551        0.2340305194
 H       -10.0268983181       -3.8767423550       -1.9865543188
 H        -9.3951003234       -2.2186807899       -2.0713326583
 H       -11.0863540868       -2.5267412860       -2.4395194524
 H       -12.2917006197        3.6358559327        2.4957824421
 H       -13.4192141164        4.4934561173        1.3548944418
 H       -11.7896957863        5.0464634167        1.5647782253
 H       -13.3950749982        3.3556060894       -1.2920268002
 H       -11.7276422475        3.3902463165       -1.8361118737
 H       -12.4157641209        4.7706819518       -1.0497313141
 H        -4.9433165064        7.1296893704       -3.2184309320
 H        -6.5429064494        7.6146598810       -3.0114125507
 H        -6.1899309996        6.0836552436       -3.8743703176
 H        -5.6909616064        4.0118845604       -2.3519455451
 H        -5.0327567266        4.1264608812       -0.8045043444
 H        -4.2045167596        4.8101441681       -2.1424984002
 H        -9.1450596044       11.9408720963        0.5359982450
 H       -10.7558412639       11.3338198577        0.1504366403
 H        -9.5430351831       11.3071046453       -1.0931344052
 H        -9.8751317814       10.2677996497        2.3861731843
 H        -8.1377428691       10.4402205267        2.1988165052
 H        -8.7137186452        8.8293682479        2.5108082932
 H       -10.1188423029        6.3294308538       -4.2033101136
 H       -10.0927387730        7.9154686033       -4.7392479643
 H       -10.5893588112        6.6996990240       -5.8659728630
 H       -13.0935764675        7.3759545929       -6.5305657406
 H       -12.2864865698        8.7226122135       -6.3406296866
 H       -13.8051772457        8.4400022215       -5.4753672422
 Na       -9.7962582497        0.8250819083        1.9466182394
