117

 C       -14.5499465895        6.0684835271       -4.2192626399
 C       -13.0667808334        5.8544438337       -4.3197092999
 O       -12.5650397799        4.7474153076       -4.0477761931
 C       -12.0894909300        7.0506798773       -4.7180050076
 C       -12.0364055980        7.9418540805       -3.3634597826
 O       -13.0027356230        8.5736790969       -3.1425465845
 C       -10.8909747378        7.8491059085       -2.3633607038
 C       -11.0114821808        9.0667310164       -1.4313834649
 C       -10.1247445617        8.8662598971       -0.1624934253
 O       -10.2451768230        7.8793468918        0.4685209780
 C        -8.9986377445        9.9789351254        0.2460116133
 C        -7.7216915154        9.3915816811       -0.5688917656
 O        -7.6689302001        9.6654084980       -1.7474361586
 C        -6.6374951925        8.7616543180        0.2489388961
 C        -5.4943844293        8.1206658736       -0.5294118564
 C        -5.6877393068        6.5949763968       -0.5229791338
 O        -5.6093374377        6.0810158139        0.6164101486
 C        -6.0049847781        5.7837611286       -1.7522814547
 C        -7.5963892687        5.3872262261       -1.7953394583
 O        -8.3475820267        6.1656585944       -2.3577617826
 C        -8.2090196973        4.2089406865       -1.0265840832
 C        -9.7211921457        4.4194618534       -0.9086377216
 C       -10.3928783782        3.5147549305        0.1984079577
 O        -9.6299295687        2.8179054465        0.8133367043
 C       -11.9262937446        3.5138826036        0.4567088122
 C       -12.3145788662        2.0646335587        0.8407174002
 O       -12.3047490008        1.7552604345        2.0248293059
 C       -12.7186868468        1.1063649169       -0.2316764063
 C       -12.6176681694       -0.3890568359        0.1693339836
 C       -11.1668230234       -0.9734892199        0.1467158417
 O       -10.2546847953       -0.2098300810        0.3482051532
 C       -10.8793714767       -2.4569451613       -0.1736394381
 C        -9.8535585466       -2.8746540703        0.9960603006
 O       -10.2844406718       -3.1701345682        2.0708667442
 C        -8.3532798710       -2.8098920013        0.7864589384
 C        -7.7054829725       -2.8011606286        2.1874041705
 C        -8.1192720282       -1.5415922911        2.8421116295
 O        -8.2740948255       -0.5433661859        2.1446336822
 C        -8.1516511046       -1.3973609622        4.3589739477
 C        -9.7608644447       -1.3628280800        4.5856581915
 O       -10.4615609071       -0.4110521620        4.2293371614
 C       -10.3527479398       -2.6393063879        5.2314766148
 C        -7.5460776645       -2.6235236535        5.1170613547
 C        -7.5340530215       -0.0490416474        4.9410445015
 C       -12.1630873145       -3.3181840539       -0.1377606374
 C       -10.1988793852       -2.6202327346       -1.5682337826
 C       -12.0405194286        4.4935276005        1.7038146029
 C       -12.8004661800        4.0596685805       -0.7465809410
 C        -5.6788316811        6.5182791901       -3.1250965826
 C        -5.1243047762        4.5079140199       -1.6964946318
 C        -9.2111443782       11.3582737119       -0.3639989343
 C        -8.7978835354       10.0364112626        1.7725171132
 C       -10.7114485083        6.5069862881       -5.1805006723
 C       -12.6888708423        7.8931169408       -5.8362333024
 H       -14.8787311515        5.2217123169       -3.5635150268
 H       -15.0723984967        5.8897652127       -5.1625063115
 H       -14.8441017978        7.0414180303       -3.8344532074
 H        -9.9077144839        7.9292226685       -2.8220752722
 H       -11.0030355689        6.8390276308       -1.8769943867
 H       -12.0336487949        9.2370406829       -1.1768035345
 H       -10.6781338326        9.9693992769       -1.9764192231
 H        -7.0710681388        8.0797686552        1.0350633941
 H        -6.2003939717        9.6318594595        0.8942350967
 H        -4.5055861224        8.3301076757        0.0044697454
 H        -5.2811780784        8.4684190264       -1.5286949514
 H        -7.8868189967        4.2137300707        0.0647160046
 H        -7.9981109505        3.1659253504       -1.3873895547
 H       -10.1635723307        4.1548260795       -1.8895347572
 H        -9.8279283979        5.4575448292       -0.6335276308
 H       -12.1557166782        1.2788665786       -1.1257093630
 H       -13.7986848110        1.3142403492       -0.3738412927
 H       -13.2747283109       -0.8356490217       -0.5441065116
 H       -13.1528215662       -0.5788476436        1.1098006602
 H        -8.1526486153       -1.9249128706        0.1826738606
 H        -7.9302934378       -3.6447623559        0.2299758312
 H        -6.6378842032       -2.7098797247        1.9977256133
 H        -7.8786416859       -3.7511570851        2.5617194610
 H       -11.3372029214       -2.2260672288        5.6670013579
 H        -9.8601215327       -3.1644009930        6.0057565359
 H       -10.7498879073       -3.3903772282        4.4934264508
 H        -7.9572703535       -3.5719748732        4.8751808618
 H        -7.5945407179       -2.4715932839        6.2018765151
 H        -6.4571662440       -2.7743204307        4.9875127877
 H        -7.8700412646        0.8934140108        4.5478344747
 H        -6.5025976722       -0.0416326053        4.7379797245
 H        -7.7823160078        0.0082177957        6.0671461411
 H       -12.9227590032       -3.2158149266       -0.8290820380
 H       -12.6467857904       -3.2199554980        0.8558694996
 H       -11.8957588915       -4.3393588645       -0.3327296793
 H        -9.8367853847       -3.6558546963       -1.6752150070
 H        -9.4053368838       -1.9325110634       -1.6790585940
 H       -10.9600391466       -2.5338378879       -2.3321873516
 H       -12.3738214204        5.5011336611        1.3859338662
 H       -11.0592117609        4.5815023326        2.1162930726
 H       -12.6204961958        3.9199331532        2.4450765729
 H       -13.6973038623        4.4655336289       -0.3092326989
 H       -13.0343854762        3.2970820391       -1.4654718903
 H       -12.1920499091        4.8444372846       -1.2295182920
 H        -4.7196522074        7.0613247389       -3.0850916034
 H        -6.4850135448        7.2244408054       -3.4192602206
 H        -5.7336020084        5.8496640929       -3.9401538084
 H        -5.2319029522        3.8803602407       -2.6468687921
 H        -5.3141754719        3.8715911932       -0.8702391288
 H        -4.0130749020        4.7569194094       -1.7812486035
 H        -8.2671208185       11.8885349052       -0.2904360751
 H        -9.9514220398       11.9554352904        0.1030125343
 H        -9.3907820148       11.2891372629       -1.4710545424
 H        -9.6514865080       10.2659052264        2.3694741347
 H        -8.0344295204       10.7984093742        1.9381079411
 H        -8.5306757857        9.1113644973        2.1486118110
 H       -10.3316775864        5.7993302724       -4.4670825106
 H       -10.0051066828        7.3334153442       -5.4773020068
 H       -10.7245543318        5.9413995710       -6.1605625767
 H       -13.4270853329        7.3648824111       -6.5686865737
 H       -11.9327898444        8.4607240522       -6.2862678146
 H       -13.2996221724        8.7256623084       -5.4447853023
 Na       -9.8602137039        1.2264862944        2.4251270954
