117

 C       -14.6009271909        6.0783681839       -4.1614147321
 C       -13.0624542546        5.9231756264       -4.1605379631
 O       -12.4937150482        4.9154819314       -3.7084944283
 C       -12.1659629652        7.1354068389       -4.6222933888
 C       -12.1852017814        8.0951817877       -3.3695161822
 O       -13.1620517727        8.7261950025       -3.1108844804
 C       -10.9197851068        8.2739770927       -2.4709296201
 C       -11.2807244113        8.9793269572       -1.1186864128
 C       -10.1349672881        8.6704218009       -0.1075072381
 O       -10.0128944718        7.5283893498        0.2529106188
 C        -9.1322381636        9.8030892560        0.3280869079
 C        -7.8114310360        9.4444565701       -0.4190245375
 O        -7.7372500403        9.6396889267       -1.6019952545
 C        -6.5850752515        8.8488943552        0.3806590826
 C        -5.4922723907        8.1388915408       -0.4255912776
 C        -5.6592625375        6.6028228295       -0.4898946916
 O        -5.6374711912        5.9994871690        0.5651940077
 C        -6.0232778764        5.7859425129       -1.7674041438
 C        -7.5877801314        5.6759074902       -1.7505375689
 O        -8.3611552093        6.4028318996       -2.2863994849
 C        -8.0755050417        4.6364600973       -0.6571875984
 C        -9.6148602643        4.6140199932       -0.5440903691
 C       -10.2087139655        3.5560078556        0.3361207860
 O        -9.4766132299        2.8445077068        1.0369923723
 C       -11.8398181541        3.4153564958        0.2969762041
 C       -12.1429345149        1.9625288639        0.6354655255
 O       -12.0344553967        1.5948933641        1.8233096668
 C       -12.7870267110        1.0368354496       -0.3972558144
 C       -12.6047315851       -0.4653580953       -0.0357321868
 C       -11.1926360597       -0.9983494158        0.0401289648
 O       -10.2833779006       -0.1608736423        0.1812290450
 C       -10.8691311796       -2.4806902192       -0.1618306484
 C        -9.8283775898       -2.8384706910        1.0205943905
 O       -10.2614187098       -2.9884640038        2.1435380024
 C        -8.2490142614       -2.8961330973        0.7138596114
 C        -7.4890800773       -2.7819022454        2.0144713074
 C        -7.8231967579       -1.4127364095        2.6942673303
 O        -7.9250910216       -0.4075713630        1.9808366247
 C        -8.1780706452       -1.3407112349        4.1932820673
 C        -9.7589225771       -1.5065224005        4.3926148579
 O       -10.5696269454       -0.7312216660        3.9357404532
 C       -10.3109833744       -2.7442861383        5.2141248897
 C        -7.4186153768       -2.4425902555        5.0222361775
 C        -7.9135058468        0.0357134842        4.8093435847
 C       -12.0929048400       -3.4576437605       -0.1636242364
 C       -10.1883318568       -2.4719484520       -1.5047493983
 C       -12.2920999640        4.2921708183        1.4835271481
 C       -12.3096772334        3.8572755390       -1.0676775871
 C        -5.6945126261        6.5037915785       -3.0142758469
 C        -5.3766088853        4.3938746316       -1.8193951953
 C        -9.5157283478       11.2163167857       -0.1949993909
 C        -8.9785243952        9.8741572215        1.8604082132
 C       -10.7190102276        6.7560352821       -4.9525225757
 C       -12.7955387971        7.8674941382       -5.8385710175
 H       -15.0945071093        5.1683398178       -3.7368324239
 H       -15.0313842709        6.1593071608       -5.1670043485
 H       -14.7966195904        6.9970607279       -3.6602788260
 H       -10.1047088014        8.6670366762       -3.0700009108
 H       -10.6784625868        7.2521714719       -2.1352032224
 H       -12.2140492516        8.5493862353       -0.7610093560
 H       -11.4600811063       10.0815763552       -1.2669834783
 H        -6.9593442281        8.3500516819        1.2683928947
 H        -6.1735178001        9.7425872300        0.9740578630
 H        -4.4451239175        8.3382108298       -0.0761554414
 H        -5.4080981209        8.5610018092       -1.3925386517
 H        -7.6304453768        4.9334286246        0.3091205056
 H        -7.8053838724        3.5995529645       -0.8668477492
 H       -10.0113895366        4.5220400180       -1.5539526018
 H        -9.8436867240        5.5449182542       -0.1242370736
 H       -12.2994739770        1.2194648611       -1.3457778654
 H       -13.8473565458        1.3467979919       -0.3936023834
 H       -13.1546767945       -1.0840140603       -0.7851072197
 H       -13.1468193663       -0.7183735781        0.8590928467
 H        -7.9896524720       -1.9884443942        0.1337444332
 H        -8.1830903206       -3.6805904082       -0.0446523767
 H        -6.4193595184       -2.8231997281        1.7489630655
 H        -7.6544108381       -3.6744516168        2.5697826446
 H       -11.2572449739       -3.0945409512        4.7237404942
 H       -10.5517497553       -2.5476849738        6.2475422668
 H        -9.6903038162       -3.7001433294        5.2192192935
 H        -7.5965383424       -3.4150460424        4.6886771232
 H        -7.7138899183       -2.4961704558        6.0634584355
 H        -6.3233026632       -2.3847835496        5.0687573174
 H        -8.5182126897        0.8109249809        4.3846576173
 H        -6.9019336882        0.4341259009        4.6041123834
 H        -7.9670366970       -0.0246294374        5.9632297984
 H       -12.9471892096       -3.1996404653       -0.8154662476
 H       -12.6226882310       -3.6425194501        0.8294067898
 H       -11.7667695615       -4.4852080887       -0.4271389237
 H        -9.7910003690       -3.4265427194       -1.8394256701
 H        -9.3548784983       -1.7419223693       -1.4840067581
 H       -10.9195579800       -2.1181279580       -2.2170711991
 H       -13.1353850974        3.7750789486        2.0129182300
 H       -12.6849713154        5.2108468358        1.1434816178
 H       -11.4032418369        4.3712633826        2.1481271073
 H       -13.3557787812        3.5449932679       -1.2117220331
 H       -11.6717270676        3.3463638344       -1.7919736997
 H       -12.2505045765        4.9168025025       -1.2400460297
 H        -4.5971162231        6.7759127913       -3.1314727733
 H        -6.2972422893        7.4693875656       -3.1343512070
 H        -5.8009502016        5.8715843796       -3.9019117815
 H        -5.8562437090        3.8935443612       -2.5849505135
 H        -5.3885444064        3.8103444236       -0.9273479971
 H        -4.3539839868        4.4403826148       -2.0901391927
 H        -8.8060488579       11.9944351618        0.0894297713
 H       -10.4613415511       11.5168385287        0.1563525800
 H        -9.5068177440       11.2046913945       -1.2944519660
 H        -9.9390820357       10.3021472697        2.2146761169
 H        -8.1286061825       10.5378156326        2.2345008326
 H        -8.8042746297        8.9096251830        2.3053822812
 H       -10.2185310303        6.3797433395       -4.0638544958
 H       -10.1265847683        7.6101681177       -5.4077955603
 H       -10.5999996440        5.8973939039       -5.6191404396
 H       -12.8893452229        7.2957422160       -6.7600458903
 H       -12.3115309271        8.8247511062       -6.1283784873
 H       -13.8326178986        8.1062096466       -5.6619412662
 Na      -10.0951651876        0.8865361928        2.4796879375
