117

 C       -13.9553037271        4.2572690108       -0.2781278651
 C       -13.3619063727        2.9563178354       -0.6481010238
 O       -12.8000175136        2.8476870091       -1.6789965751
 C       -13.4540375921        1.6872633910        0.3319968020
 C       -12.1913836402        0.7669014449        0.2436099455
 O       -11.5917614580        0.6540958834       -0.7635955864
 C       -11.8203999475        0.0300909942        1.5199822032
 C       -10.6650152513        0.8166806216        2.2790763278
 C        -9.6381474518       -0.3217621419        2.7159284203
 O        -9.7121189783       -0.6664634114        3.8589253158
 C        -8.5563292603       -0.8216753307        1.6469398495
 C        -8.9116946304       -0.5348440380        0.1952934981
 O        -9.1212084634        0.5645357335       -0.3784092724
 C        -8.9935106600       -1.8078920793       -0.7544705813
 C        -8.1475153514       -1.5192271513       -2.0877866230
 C        -8.9792533251       -0.8479736148       -3.1958276979
 O       -10.0907382527       -0.4448528123       -2.9805438759
 C        -8.1545459276       -0.8668148806       -4.5204588478
 C        -7.0336831146        0.4169208683       -4.5902801241
 O        -6.2095239296        0.4311298802       -3.6790816183
 C        -6.9237850287        1.3666966849       -5.8449785416
 C        -7.7244719183        2.7754876370       -5.8666749303
 C        -8.6683386024        3.1844986625       -4.5999284268
 O        -9.5489817466        2.4403439958       -4.2562212613
 C        -8.6614596058        4.5980071855       -3.9063091825
 C        -8.6864291310        4.5178006149       -2.2914315759
 O        -9.1341482896        3.4936161140       -1.8103368506
 C        -8.4400053704        5.8195506920       -1.5645476774
 C        -8.0238644254        5.4631819136       -0.1477024340
 C        -7.3627401938        6.6307268748        0.6891396860
 O        -6.8799489384        7.6698919604        0.2076095790
 C        -7.3393598477        6.3524997468        2.2235181646
 C        -8.8247115544        6.8143411950        2.7310198535
 O        -9.7681590444        6.1978868129        2.2822055690
 C        -9.1894296511        7.7667615700        3.8199600590
 C       -10.6872482711        8.1085329293        3.7541779178
 C       -10.8858392642        9.5890104788        3.7616270410
 O       -10.3908426013       10.3810681718        4.4960129738
 C       -12.3466908384       10.0143217867        2.9511862106
 C       -13.6210195105        9.0348410305        3.2920996556
 O       -13.5605434171        7.8739029985        2.9317091141
 C       -14.7074957933        9.5751327835        4.2504976258
 C       -12.6686781391       11.4411251100        3.3191691104
 C       -12.1116467258        9.9264077286        1.4963983232
 C        -7.1459624847        4.9273943296        2.6695744458
 C        -6.3713550915        7.3169345762        2.9863239321
 C        -7.5439351460        5.5436582598       -4.5704699171
 C       -10.0774321139        5.1739751644       -4.1877626126
 C        -7.3245832534       -2.0467459484       -4.6024451325
 C        -9.1713977314       -0.8479535327       -5.6869087638
 C        -7.3028144336        0.0957526894        1.9716577726
 C        -8.1969514527       -2.2961298613        2.0358305604
 C       -13.7016513527        2.1217281825        1.9259306609
 C       -14.5237852623        0.6978824791       -0.1667851845
 H       -14.8870181204        4.2106645430        0.2809843194
 H       -14.1319043415        4.9954353285       -1.0953114424
 H       -13.1850290726        4.6440149417        0.4200627732
 H       -11.3306550845       -0.9315830246        1.2829205977
 H       -12.6689665406       -0.1317718212        2.1670336191
 H       -11.0553653338        1.3533156971        3.2063056073
 H       -10.1345397616        1.5430470712        1.6559281579
 H       -10.0152095335       -2.1076662540       -0.9193982234
 H        -8.5230448402       -2.7486513707       -0.3343418533
 H        -7.6280677734       -2.4649095535       -2.3658896806
 H        -7.4789352152       -0.6871628382       -1.8693894463
 H        -7.1196668102        0.5991820257       -6.6144905338
 H        -5.9725384350        1.7531538146       -5.9328193298
 H        -8.3122000662        2.6260563973       -6.7332501775
 H        -6.9597260761        3.4934159450       -6.0630254157
 H        -9.4412065994        6.2392705317       -1.6452940747
 H        -7.7899508196        6.6002438297       -2.1774898862
 H        -7.2779959856        4.6326491986       -0.0393939258
 H        -8.8837824760        5.2162642270        0.4613360840
 H        -8.6947626151        8.6884364558        3.7655241398
 H        -8.9713389091        7.3154059820        4.8027223675
 H       -11.1617875143        7.8807966180        4.7615584317
 H       -11.2067850681        7.5042310459        3.0815143226
 H       -15.2958621705        8.7687679897        4.4558131556
 H       -15.2699262544       10.4296081074        3.7016594585
 H       -14.2639465609        9.6579899832        5.1701862926
 H       -13.6464232747       11.7276897224        2.8511094900
 H       -11.8041991779       11.9379373399        2.9370435416
 H       -12.4328998382       11.4711353653        4.3817192187
 H       -13.0188487431       10.2271923483        1.0388093485
 H       -11.8303022404        9.0061268604        1.1256676845
 H       -11.2984110364       10.7183752936        1.1889062226
 H        -7.0313566374        4.7733136955        3.7369691490
 H        -6.4148412001        4.4333687224        2.1394361981
 H        -8.1760948279        4.4184487998        2.4922405824
 H        -6.6289240142        7.3181722468        4.0195668217
 H        -6.2636886310        8.3345871241        2.6957082285
 H        -5.4815276376        6.8274940304        2.8698805427
 H        -7.7880617797        5.6965737647       -5.6527804439
 H        -6.6095471335        5.0437516101       -4.4096824217
 H        -7.4241150638        6.5591611192       -4.1044762201
 H       -10.1739556483        6.2155926981       -3.8739575344
 H       -10.8615427712        4.6087547723       -3.6819383537
 H       -10.2851838996        5.1226052682       -5.2679134871
 H        -6.3534000552       -2.0276752689       -4.1198779712
 H        -7.1041510647       -2.1518835179       -5.6497317506
 H        -7.8452455412       -2.9494350995       -4.3930926438
 H        -9.9713281970       -1.5291337599       -5.4822905387
 H        -8.6158968164       -1.1244032300       -6.6014056372
 H        -9.3829813225        0.2020048849       -5.8289966904
 H        -6.3177572947       -0.3257408492        1.6076646940
 H        -7.1995177062        0.0922400622        3.0644496380
 H        -7.3141726053        1.0505231672        1.3856503525
 H        -7.8802646720       -2.3167037506        3.1070292705
 H        -7.4697010501       -2.6559424245        1.3613657816
 H        -9.1474063211       -2.9690635921        1.8784134677
 H       -12.8332166629        2.6383032194        2.4086371586
 H       -13.8944700902        1.2739443385        2.5687149298
 H       -14.5194129198        2.7986657603        2.0769874338
 H       -14.0712252218       -0.1517973727       -0.6783410606
 H       -15.1130932150        1.2027089723       -0.9554907784
 H       -15.2293665006        0.2665736203        0.6421576073
 Na      -10.8233694599        1.7445117511       -2.4795734417
