117

 C       -14.5405644152        6.1220879258       -4.1711131004
 C       -12.9741086137        5.8834246111       -4.2274803058
 O       -12.5131255576        4.8314706267       -3.9150719226
 C       -12.1718612471        7.0865326890       -4.6413710897
 C       -12.1601020945        8.0623029547       -3.4184123233
 O       -13.1915672825        8.6867336012       -3.1005521631
 C       -10.9166226253        8.0435576347       -2.4725013075
 C       -11.0554213995        9.0051890307       -1.3069414868
 C       -10.0723475837        8.7795689288       -0.1822786615
 O       -10.0675198155        7.7561008079        0.5569646868
 C        -9.0470061204        9.9182527653        0.1745835361
 C        -7.7121447062        9.4787830102       -0.5314520128
 O        -7.6075794618        9.5104869356       -1.7435896714
 C        -6.6022802510        8.8001254774        0.3424852743
 C        -5.5720306150        8.1269412893       -0.5330743023
 C        -5.6450448426        6.5734869914       -0.4681660033
 O        -5.6120909531        5.9469827197        0.5486322281
 C        -5.9143406433        5.8609711951       -1.7718114722
 C        -7.5525532167        5.5065366491       -1.6937521868
 O        -8.2534140407        6.3244312950       -2.2724255924
 C        -8.0743247524        4.3355058626       -0.8370492572
 C        -9.6840937563        4.5100868000       -0.7220157363
 C       -10.2789513824        3.4956662543        0.2458073112
 O        -9.5789708416        2.7683782038        0.8985848069
 C       -11.9079217910        3.3745514345        0.3919129234
 C       -12.3134178333        1.9633829363        0.7974308205
 O       -12.3070978474        1.5880315546        1.9394031875
 C       -12.6903531117        0.9984370571       -0.3128328004
 C       -12.5334611496       -0.4472400184        0.0842486522
 C       -11.1527215459       -0.8674506937        0.0496292233
 O       -10.2540623000       -0.1415140808        0.4182259584
 C       -10.8054066853       -2.4125378572       -0.2150936124
 C        -9.8779145517       -2.8224261161        0.9454817781
 O       -10.3296323388       -3.0528054104        2.0682044018
 C        -8.3319949482       -3.0254992321        0.7645812618
 C        -7.5962116325       -2.7175409866        2.0871680757
 C        -8.0489751209       -1.4451133123        2.7651043367
 O        -8.1290177820       -0.4006323503        2.1572957732
 C        -8.1679329358       -1.4159129666        4.3085534824
 C        -9.7968582559       -1.5363828745        4.4821189225
 O       -10.4930233221       -0.6085380881        4.1245790726
 C       -10.4783951369       -2.6963392357        5.1906917106
 C        -7.3427568052       -2.4663784643        5.0278102838
 C        -7.7274275029       -0.0292354119        4.8174020859
 C       -12.0438663240       -3.2674698079       -0.0361169629
 C       -10.2590423689       -2.5194371111       -1.7088535666
 C       -12.2485205974        4.4141635685        1.5371397159
 C       -12.7055607163        3.8739024846       -0.9152086159
 C        -5.6852060956        6.5974143529       -3.0647983262
 C        -5.1664196835        4.5300976930       -1.7503552813
 C        -9.5725215461       11.3925807510       -0.2029105506
 C        -8.8801841907        9.8797360468        1.7167438082
 C       -10.7265545472        6.6138397038       -5.0199629709
 C       -12.7771349576        7.8704124451       -5.8242990847
 H       -15.1484447075        5.4698025954       -3.5727809717
 H       -14.9306033851        6.0538653949       -5.2063807316
 H       -14.6744951398        7.2119657104       -3.9631055331
 H       -10.0345207055        8.3661024859       -3.0479123686
 H       -10.7903716099        7.0220863876       -2.1454624099
 H       -12.0606616373        8.8645436491       -0.8201810603
 H       -11.0553980365       10.0346741678       -1.6569697274
 H        -7.0629448551        8.2008566652        1.1127259160
 H        -6.1415585185        9.4938071439        0.9579887573
 H        -4.6049636073        8.4131283015       -0.2328434029
 H        -5.5119208429        8.4600635844       -1.5991984349
 H        -7.6300679124        4.4956909838        0.1346358588
 H        -7.8073295028        3.3457536676       -1.1752768450
 H       -10.1833682916        4.3231891160       -1.6785503246
 H        -9.8180689279        5.5577257726       -0.2980729725
 H       -12.0764180283        1.2532945901       -1.2086384324
 H       -13.7517559132        1.1810410578       -0.4375752400
 H       -13.2290201489       -1.0876072571       -0.4727706963
 H       -12.9417196619       -0.5300717617        1.1275408380
 H        -7.9033593289       -2.4019708003       -0.0390874992
 H        -8.3022815297       -4.0427072963        0.3297394359
 H        -6.5249933177       -2.6668922244        1.8487343503
 H        -7.7264523894       -3.6670703707        2.7043142608
 H       -11.5014103250       -2.7643898715        5.1877628606
 H       -10.0824442274       -2.6756051118        6.2273927366
 H       -10.1267487528       -3.5936530969        4.7923832461
 H        -7.7391174473       -3.5189210488        4.9393635635
 H        -7.3614579286       -2.2858859519        6.0984803353
 H        -6.3005129109       -2.5646340195        4.8302888805
 H        -8.4915439342        0.7148146437        4.4776582888
 H        -6.8210700906        0.4673384840        4.4349058873
 H        -7.7590875111       -0.0430595844        5.8465562481
 H       -12.7547235182       -3.2334228582       -0.8774199980
 H       -12.6187612172       -3.0277342424        0.8004126422
 H       -11.8431109001       -4.3343398377        0.0276696561
 H       -10.1271731938       -3.5794221335       -1.9193902063
 H        -9.2625170053       -2.0596158927       -1.7698873723
 H       -10.9753609460       -2.1640350316       -2.4624229708
 H       -13.1869481038        4.8360009711        1.3317643866
 H       -11.5497848802        5.2615202031        1.3636398284
 H       -12.0958969420        3.9549217027        2.4751665622
 H       -13.7610699034        3.6036484874       -0.8221545749
 H       -12.2653295963        3.5467189442       -1.8634708972
 H       -12.6128436179        4.9574397185       -0.8980966058
 H        -4.6700730124        6.8633767267       -3.2365087272
 H        -6.2816833516        7.4408166860       -3.1901768978
 H        -5.9104673851        5.9419712574       -3.9275963977
 H        -5.4867149855        3.7953202055       -2.4937096621
 H        -5.2582947769        4.0532244152       -0.7181366197
 H        -4.1270584078        4.6366530612       -2.0156406333
 H        -9.1205728889       12.1552860588        0.4504303114
 H       -10.6768079971       11.4335108296        0.0376722773
 H        -9.3983687079       11.7273602309       -1.2046718971
 H        -9.7579885365       10.3333701660        2.2075357194
 H        -8.0024563546       10.3815667429        2.0622109141
 H        -8.8401401023        8.7890266793        2.0744227748
 H       -10.4150661492        5.7777045414       -4.3996078121
 H       -10.0775301609        7.4011637004       -5.1000984588
 H       -10.6673446406        6.1861549248       -5.9792235751
 H       -12.9977370373        7.1985847602       -6.6074625222
 H       -12.1878095426        8.7569190429       -6.1430893473
 H       -13.7659976421        8.2901576690       -5.6516749581
 Na       -9.8766241367        1.1037629044        2.4603279688
