117

 C       -14.5058096597        6.0709911473       -4.1439123538
 C       -13.0423617488        5.9559959060       -4.1471240699
 O       -12.4619561498        5.0075897131       -3.6635880836
 C       -12.1560304623        7.2182971427       -4.5642667906
 C       -12.1755099214        8.1983682462       -3.3757647994
 O       -13.2529302729        8.7616039426       -3.1047232997
 C       -10.9616236237        8.2891922705       -2.4192204626
 C       -11.3715191999        8.8916084060       -1.0473914415
 C       -10.2131213469        8.6799780707       -0.1213733040
 O        -9.9820364128        7.4875172666        0.2434793999
 C        -9.1838630645        9.7265925349        0.3438626025
 C        -7.8178712177        9.3748576136       -0.3698344945
 O        -7.7170933985        9.6740192651       -1.5401322689
 C        -6.5622449805        8.8054212061        0.3715830894
 C        -5.5182248451        8.1494123461       -0.4936095289
 C        -5.6854559074        6.6279245652       -0.4350035688
 O        -5.6425870277        5.9909931317        0.5567410307
 C        -6.0928145206        5.8666222262       -1.8357587986
 C        -7.6042850462        5.7410477359       -1.6131142501
 O        -8.3547823719        6.3462751014       -2.3338440257
 C        -8.1363188418        4.6945523712       -0.5171142298
 C        -9.5942153864        4.6332262937       -0.4742432636
 C       -10.1365405203        3.5581518558        0.3855305550
 O        -9.5183346691        2.8620525294        1.1787063804
 C       -11.7046570164        3.3559453424        0.2820232311
 C       -12.1159127039        1.9125757417        0.6355023687
 O       -11.9828717156        1.5112686408        1.7587851699
 C       -12.7927256444        0.9898304824       -0.4500360664
 C       -12.7357504107       -0.4684663332       -0.0723230760
 C       -11.2597385974       -1.0182096247       -0.0011698512
 O       -10.3643172529       -0.2021404292        0.1357073869
 C       -10.8248090287       -2.4840735177       -0.1865531517
 C        -9.8440917182       -2.7941755838        0.9991071866
 O       -10.1526780988       -3.0391276263        2.1684457320
 C        -8.3212936670       -2.7477818265        0.7211739997
 C        -7.5338231416       -2.6653559991        2.0434616367
 C        -7.8778969862       -1.3991067772        2.7281953317
 O        -7.9255939877       -0.3814447495        2.0312582059
 C        -8.2234284824       -1.3677213472        4.2174065718
 C        -9.7897867791       -1.6584374876        4.2948234786
 O       -10.5673580678       -0.8536750956        3.8904625412
 C       -10.2640875592       -2.7870070769        5.1714916569
 C        -7.4172584206       -2.3769527517        5.0239708217
 C        -7.8803416367        0.0561989776        4.7432824916
 C       -11.9885651160       -3.4396352655       -0.1097116092
 C       -10.0691243431       -2.5973246394       -1.5804516108
 C       -12.2824186817        4.3485626569        1.4615556574
 C       -12.2701281742        3.8593332905       -1.1051579617
 C        -5.6540605192        6.6593509639       -3.1207101873
 C        -5.4897063961        4.4344227597       -1.7198600322
 C        -9.4284094241       11.2136936578       -0.1778161822
 C        -9.0810740315        9.7980616499        1.9112671150
 C       -10.7574290787        6.6828958109       -4.9333550078
 C       -12.8207749540        7.8916484392       -5.8012501969
 H       -14.8024526485        5.0802099699       -3.8839065891
 H       -14.8667890903        6.0881630857       -5.2073132769
 H       -14.9023928287        6.9177350416       -3.5998255604
 H       -10.3039706200        8.9637664621       -3.0339377630
 H       -10.4463943906        7.3106199949       -2.2957001746
 H       -12.2906333733        8.5043531378       -0.6716840417
 H       -11.4933214919        9.9555388155       -1.2688130922
 H        -6.9173635136        8.1765298501        1.1908540166
 H        -6.1911652389        9.6311398151        1.0830450359
 H        -4.4767814844        8.3228946357       -0.1377954106
 H        -5.4045987736        8.5678800694       -1.5149012767
 H        -7.7060693146        4.8874899011        0.5229647923
 H        -7.8999899544        3.6465505833       -0.8354109425
 H        -9.9521267623        4.5090608565       -1.5481245347
 H        -9.8942728236        5.5756883012       -0.0666204946
 H       -12.1938447245        1.0752199484       -1.3896891566
 H       -13.7940006495        1.3415739183       -0.5882230941
 H       -13.3768869951       -1.0282811616       -0.8133766598
 H       -13.2378519361       -0.6516310468        0.8020648161
 H        -8.1176281883       -1.9261268493        0.0505123911
 H        -8.1730068554       -3.6081526232        0.0860826210
 H        -6.5302207127       -2.7654583251        1.8306707690
 H        -7.7736528298       -3.5953930688        2.5528087630
 H       -11.2088148904       -3.1858924871        4.8623175697
 H       -10.4257316060       -2.3165652010        6.2165773352
 H        -9.5631529950       -3.6267076789        5.3150359122
 H        -7.4677326765       -3.3734749177        4.5879729866
 H        -7.7225962601       -2.5895612668        6.0370581035
 H        -6.3652577037       -2.1927561457        5.0954243453
 H        -8.1898125198        0.8159416905        4.0385818518
 H        -6.7448351528        0.1978730246        4.6879225107
 H        -8.0758277119        0.2570276159        5.7307327464
 H       -12.8663679231       -3.0201241018       -0.6743950418
 H       -12.4234003431       -3.6471244648        0.8306819286
 H       -11.7791886466       -4.4392053432       -0.4697040617
 H        -9.4646074196       -3.4478969888       -1.7300626001
 H        -9.4024608686       -1.6787022555       -1.6973855589
 H       -10.8234261805       -2.4942775487       -2.3292917641
 H       -13.0411693739        3.8297340850        2.0497506115
 H       -12.8546506097        5.0631674289        0.8465228306
 H       -11.4889685952        4.7898750162        2.0963085938
 H       -13.3734331911        3.9534632032       -1.0198452566
 H       -12.0229428754        3.1280510920       -1.9019062625
 H       -11.9143784899        4.7939522489       -1.4199768276
 H        -4.6016892936        6.9405462916       -3.1855708625
 H        -6.2364151606        7.5452286957       -3.3182810860
 H        -5.6794268173        5.9705753303       -4.0082416103
 H        -5.9589282913        3.7133940478       -2.3851004898
 H        -5.5767533282        4.0787646074       -0.6261506959
 H        -4.4037119559        4.4289649382       -1.8203651992
 H        -8.5110613868       11.8345710221       -0.1773731252
 H       -10.1700085273       11.7587913317        0.3955924431
 H        -9.7368086889       11.1864006502       -1.1723913859
 H       -10.0285903618       10.1500073435        2.2567817745
 H        -8.3850974147       10.5559814435        2.1644843222
 H        -8.6966294919        8.9211480746        2.4436957947
 H       -10.1575623545        6.2264198039       -4.0499560430
 H       -10.1055385151        7.4346510407       -5.4459436531
 H       -10.8537969716        5.8187255810       -5.6069875890
 H       -13.0568314218        7.3511621494       -6.6574681488
 H       -12.1675653662        8.7762423669       -6.2276374144
 H       -13.7999815565        8.3528427045       -5.5296873011
 Na      -10.0003139100        0.8620789792        2.2650788806
