117

 C       -14.5147097729        5.8787970995       -4.5001965708
 C       -12.9991293361        5.6925089205       -4.2757693190
 O       -12.5248484568        4.7043703091       -3.8083279367
 C       -12.0196245557        6.8797475607       -4.7206579826
 C       -12.1220112537        7.9829281988       -3.4369009696
 O       -13.1667788692        8.6589581073       -3.2750182191
 C       -11.0207610979        7.9158425175       -2.4132236561
 C       -10.5705963289        9.2458264522       -1.8183517440
 C       -10.0185141497        9.0568557471       -0.4017336431
 O       -10.4472324205        8.1043192686        0.2698514423
 C        -8.9358383567        9.9874857302        0.0816554495
 C        -7.6982553212        9.4222002961       -0.6767386646
 O        -7.5244793498        9.5809046046       -1.8563148902
 C        -6.6148732858        8.7379813618        0.2140850773
 C        -5.5369825472        7.9486190398       -0.5771588823
 C        -5.9765379929        6.4555328800       -0.5812785501
 O        -6.3023672044        5.9561007873        0.4294214844
 C        -6.0657367519        5.5694671483       -2.0075611687
 C        -7.5680462502        5.3243871283       -2.0361878552
 O        -8.2926338577        5.8763184625       -2.8320623495
 C        -8.1849368118        4.3856067054       -0.9518680522
 C        -9.6750661463        4.3345865197       -0.9509942395
 C       -10.1089183571        3.4588887914        0.2408819743
 O        -9.2751526139        2.7927985713        0.8581699988
 C       -11.6601743188        3.5067848744        0.6724655553
 C       -12.1639593069        2.0892231838        1.0482134476
 O       -12.2250058774        1.6175626636        2.2095118477
 C       -12.7606331903        1.2242489795       -0.1164470219
 C       -12.7008372928       -0.3122098218        0.1772675157
 C       -11.2949126095       -0.7704413316        0.1880388014
 O       -10.2321905325       -0.1161496870        0.2030922399
 C       -11.0822816394       -2.3738874662       -0.0827302938
 C       -10.0876932667       -2.9049508904        0.9763978582
 O       -10.5392517688       -3.3237516065        2.0538071751
 C        -8.5408576903       -2.6446308626        0.8017891155
 C        -7.8744594723       -2.7021386688        2.2174643892
 C        -8.0250044459       -1.3405662232        3.0163659172
 O        -7.9653821415       -0.3513363564        2.3399674532
 C        -8.3013396445       -1.3587954254        4.6151888242
 C        -9.7618515443       -1.0360716873        4.8251578288
 O       -10.2611459441        0.0157218088        4.4099945510
 C       -10.5693924872       -2.0600390392        5.5272045086
 C        -7.8822776533       -2.7016191594        5.1200332654
 C        -7.3227500711       -0.3443372040        5.2852532035
 C       -12.4369724534       -3.0792137154        0.0136418312
 C       -10.5166835055       -2.5964623416       -1.5033690632
 C       -11.6886865397        4.3044153286        1.9496910323
 C       -12.6291936422        4.0871262288       -0.4846961479
 C        -5.4762427733        6.2643416632       -3.2483403313
 C        -5.3345688982        4.2328191867       -1.7818565849
 C        -9.1205633459       11.4771526650       -0.4629612160
 C        -8.7606776836       10.0711192618        1.7050440733
 C       -10.5959308349        6.3362812816       -4.9409825186
 C       -12.4374758348        7.7469710368       -5.9299839182
 H       -15.0910263914        5.1534942111       -3.9648190954
 H       -14.8255627165        6.0326817689       -5.5344030768
 H       -14.8747441027        6.8038728661       -3.9662808254
 H       -10.1030578555        7.4280822797       -2.7586137089
 H       -11.4059292902        7.2582399719       -1.5756648642
 H       -11.4053114687        9.9576325309       -1.7339101932
 H        -9.7880980740        9.7315017886       -2.3498326775
 H        -7.1466398562        8.0924770269        1.0349531818
 H        -6.0722022682        9.6415784227        0.5252652742
 H        -4.5391719107        7.9640932912       -0.1556433789
 H        -5.5871949669        8.2512688431       -1.6622379823
 H        -7.9588609487        4.7839021238        0.0750171286
 H        -7.6849451793        3.3552132722       -0.9139061835
 H        -9.9752403657        3.9255418583       -1.8746563933
 H       -10.0660792176        5.3931573480       -0.9076384834
 H       -12.1635152474        1.4083745088       -0.9964667032
 H       -13.7468865549        1.6378552297       -0.3460746601
 H       -13.2651005951       -0.8500882244       -0.5662500275
 H       -13.2101088843       -0.4625524454        1.1748569417
 H        -8.2370467349       -1.6732769266        0.4390809422
 H        -8.1639485782       -3.3890753520        0.0939629822
 H        -6.8549611433       -3.0178438190        2.1517098106
 H        -8.5118047451       -3.4205203649        2.7112631276
 H       -11.6121001453       -1.8571390709        5.6686320401
 H       -10.0347321540       -2.3128137576        6.5257905670
 H       -10.5018655063       -3.0051698534        4.9686263046
 H        -8.5857450954       -3.5366724417        4.8288735738
 H        -7.9723135125       -2.6213657262        6.2026424470
 H        -6.8773598878       -3.0007965661        4.8860245145
 H        -7.7823856176        0.6608709523        5.1201561514
 H        -6.2781552243       -0.4774141415        4.9234141551
 H        -7.2927324800       -0.4259768935        6.3174441140
 H       -13.0532065722       -2.8775992546       -0.8857983745
 H       -13.0303636588       -2.8501925355        0.8367283917
 H       -12.2964567338       -4.1618336434        0.1316307697
 H       -10.3479363710       -3.6613110067       -1.5944808040
 H        -9.6223024738       -2.0080842723       -1.6535317437
 H       -11.2637132988       -2.2770491434       -2.2314809434
 H       -10.7032026497        4.5521270958        2.2937697864
 H       -12.2789719976        3.7116998838        2.6999084516
 H       -12.1554947233        5.2334137362        1.7388085749
 H       -13.6405628726        4.0836233324       -0.1253802779
 H       -12.5211648765        3.4889224258       -1.3799698842
 H       -12.2848170479        5.1204829060       -0.5892872340
 H        -4.5119255154        6.6058271276       -2.9278094814
 H        -6.0121947067        7.1189528458       -3.5711793579
 H        -5.2843394370        5.4781961171       -4.0242337912
 H        -5.7180213534        3.4896792760       -2.4954043888
 H        -5.6291790886        3.7790008332       -0.7320410505
 H        -4.2340953384        4.3168641306       -1.8289407116
 H        -8.7766946212       12.1350149889        0.3162041272
 H       -10.1967442048       11.7012812514       -0.7122584478
 H        -8.5512370724       11.6512690090       -1.3632754428
 H        -9.6492113142       10.3952466714        2.2014096598
 H        -7.9853273517       10.6708881953        2.0402811871
 H        -8.6361772083        9.0287115265        2.0744254502
 H       -10.4210289964        5.5460714949       -4.1581246765
 H        -9.7704683738        7.0242249470       -4.7737415621
 H       -10.6663379092        5.9281902923       -5.9779194931
 H       -12.4902251046        7.2101182921       -6.8491182929
 H       -11.6878061605        8.5865389863       -6.2162481357
 H       -13.4605648575        8.1861459657       -5.7040005994
 Na       -9.7659749701        0.9694054132        2.2030018315
