117

 C       -14.3788450554        5.5895314211       -4.6363614232
 C       -12.9574786908        5.7454144784       -4.1754410403
 O       -12.5646423830        5.0323745305       -3.2365062017
 C       -12.0345610027        6.8035121655       -4.7744282422
 C       -12.0192437936        7.9615377162       -3.7169729288
 O       -12.8211690654        8.8169783402       -3.7779055653
 C       -11.0503875338        7.7968119400       -2.5231007168
 C       -10.5054149756        9.0666446588       -1.9290048160
 C        -9.9927184503        8.9731685810       -0.4124736826
 O       -10.4021634553        8.1456651327        0.3730144053
 C        -8.8594522733       10.0977330345        0.0056764647
 C        -7.5916619450        9.4913481258       -0.7825244326
 O        -7.5261663041        9.6517598470       -1.9809824950
 C        -6.3710713347        8.9105403782       -0.0075039436
 C        -5.5266358276        7.9206613217       -0.7915863406
 C        -6.0097581607        6.4377937343       -0.6672999890
 O        -6.3981840011        5.9235463038        0.4052402406
 C        -6.0141727208        5.5179921817       -1.9262663386
 C        -7.4975727081        4.9677724505       -2.2056913920
 O        -8.1514281640        5.3699813136       -3.1632814603
 C        -8.1698440151        3.9827022928       -1.2380880787
 C        -9.5516172591        4.4008225911       -0.8190664901
 C       -10.0536218893        3.5701137406        0.3243669200
 O        -9.2769189745        2.7537518204        0.8250961977
 C       -11.6109570358        3.6334532049        0.7817800614
 C       -12.1114506903        2.1097593381        0.8925452565
 O       -11.7856834403        1.4951456866        1.8557761078
 C       -12.9135288979        1.4487073817       -0.1680183637
 C       -12.9301864804       -0.0957963999        0.0240334844
 C       -11.5154490922       -0.7860004197        0.0824816551
 O       -10.5289132725       -0.1310034552        0.0479590833
 C       -11.2765732718       -2.4236828804        0.0286236170
 C       -10.3269009315       -2.7475428960        1.2449602327
 O       -10.7842937640       -3.1295652315        2.2792104575
 C        -8.8398477804       -2.6976098682        0.9713173302
 C        -8.0340617881       -2.7600979374        2.3327659210
 C        -7.9995865574       -1.3890707917        3.0662220603
 O        -7.8277646143       -0.3188938510        2.4819789475
 C        -8.3207022638       -1.3498952257        4.6500052807
 C        -9.8274148655       -0.8663435651        4.9186103552
 O       -10.2812380193       -0.0811800548        4.1341268840
 C       -10.5632613225       -1.5757725353        6.1528766000
 C        -8.1626601935       -2.7972483581        5.2239861581
 C        -7.4371418702       -0.4132817708        5.3586998936
 C       -12.6295727184       -3.1419129520        0.1553326463
 C       -10.6098848124       -2.6666650986       -1.3526215059
 C       -11.5661894331        4.1846926381        2.2314245223
 C       -12.5565570800        4.5067205123       -0.0745899536
 C        -5.5842960198        6.2682061818       -3.2705585850
 C        -5.1488971762        4.2899891407       -1.6372215333
 C        -9.2708171314       11.4928399508       -0.6018567276
 C        -8.6197809098       10.1520758170        1.5108518575
 C       -10.6484226586        6.0759521894       -4.9439657356
 C       -12.6251421019        7.4263100250       -6.0616947467
 H       -15.0622397336        4.9667247485       -4.0410617564
 H       -14.3847983674        5.3294068671       -5.7212114798
 H       -14.8837241486        6.5303060135       -4.6461154391
 H       -10.1186423576        7.1695669383       -2.7252631733
 H       -11.6330563165        7.1844412039       -1.8215650578
 H       -11.2846906783        9.8158643315       -1.9899545593
 H        -9.6300519322        9.4076234889       -2.4511937139
 H        -6.7954142770        8.4065927188        0.8838645887
 H        -5.7388523040        9.8629513691        0.1831615438
 H        -4.6213454902        7.8702255414       -0.1840591593
 H        -5.3759545547        8.1857830387       -1.8716680870
 H        -7.5077039240        3.9774906377       -0.3184761791
 H        -8.2072959655        2.9052320273       -1.6400509694
 H       -10.1953120888        4.4183543033       -1.7051728468
 H        -9.5061177331        5.4562312962       -0.6377150435
 H       -12.5503153538        1.7068894964       -1.1935728286
 H       -13.8682606735        1.8796348225       -0.1911720077
 H       -13.6938194359       -0.3816628786       -0.8216757285
 H       -13.4559226296       -0.1919849317        0.9654432816
 H        -8.4918907606       -1.7418470113        0.5764189021
 H        -8.3730336555       -3.4745977760        0.3920061924
 H        -7.0577762871       -3.0673345338        2.0751069379
 H        -8.5480795643       -3.5312020599        2.9316308429
 H       -11.5110619661       -1.0209874762        6.4250506335
 H        -9.9821035885       -1.6939984577        7.0121779402
 H       -10.8899038126       -2.5887294871        5.7938289266
 H        -8.9764291383       -3.4259208533        4.9131821543
 H        -8.1143379415       -2.7791078703        6.3371899031
 H        -7.2000638540       -3.1604636057        4.8108101952
 H        -7.3451306041        0.5175250092        4.9055390780
 H        -6.4695670214       -0.8886587352        5.4896525776
 H        -7.7012689584       -0.3885805471        6.4539272263
 H       -13.2929349434       -2.6497070360       -0.5298279039
 H       -13.0239443365       -2.9484427639        1.1766565635
 H       -12.5966027128       -4.1867560699       -0.0004519433
 H       -10.0908638472       -3.5972794157       -1.3829621580
 H        -9.8982836681       -1.8076831328       -1.4957243834
 H       -11.3865685102       -2.5842949174       -2.0872954277
 H       -11.7989161289        3.4048899311        2.9323601423
 H       -12.2268204228        4.9700650876        2.4524178764
 H       -10.5160545467        4.4858708471        2.4438454117
 H       -13.6033178901        4.2234130203        0.2027422095
 H       -12.3822496674        4.3549758061       -1.1534513758
 H       -12.4335799180        5.5329582184        0.1632024816
 H        -4.5862171192        6.6442911913       -3.1874785357
 H        -6.3448899042        7.0266499958       -3.4303680722
 H        -5.5743683049        5.5843048675       -4.0758889362
 H        -5.3031452021        3.5629815078       -2.5289593934
 H        -5.4567028708        3.8263788248       -0.7142440191
 H        -4.0105390942        4.4236286256       -1.4732034033
 H        -8.3927222113       12.1918310097       -0.5184497630
 H       -10.0908940574       11.9308248975       -0.0532320502
 H        -9.5070779695       11.3280622142       -1.6451189807
 H        -9.5115923317       10.6054880650        1.8695421023
 H        -7.8002717810       10.8262090603        1.7112491318
 H        -8.3234959278        9.2923793136        2.0245620379
 H       -10.4396944723        5.3575051479       -4.1432053400
 H        -9.8503314350        6.8566970659       -4.8245470163
 H       -10.6643820682        5.5433512732       -5.8747974921
 H       -12.6224784297        6.6983348296       -6.9437677971
 H       -11.9416349852        8.2241723177       -6.3838520348
 H       -13.6647374847        7.7668290007       -5.8570657904
 Na       -9.4093145788        1.1286277036        2.4016530003
