117

 C       -14.4299768590        5.9106117610       -4.6416840348
 C       -13.0116492832        5.7128382498       -4.2539933023
 O       -12.5398228184        4.8017524329       -3.5351393982
 C       -12.0205420810        6.8759531361       -4.6900483709
 C       -12.0864036154        7.9025288125       -3.5035034034
 O       -13.0063126660        8.6353981443       -3.4366431225
 C       -11.1219159260        7.7822393388       -2.3198283790
 C       -10.6658046160        9.1766804336       -1.8708397041
 C       -10.0142993654        9.1208935426       -0.4670185583
 O       -10.4051133791        8.2619627804        0.2463297542
 C        -8.9036276688       10.0466501182        0.0127571439
 C        -7.5748240122        9.4466990760       -0.7003233122
 O        -7.3856659541        9.5863122536       -1.9093872300
 C        -6.4725551008        8.7385278146        0.1687046300
 C        -5.6123362236        7.9416687944       -0.7759720062
 C        -5.9314371709        6.3910368417       -0.6677218199
 O        -6.3420632573        5.9678226373        0.4389581521
 C        -6.0577010944        5.5242442441       -1.9345455128
 C        -7.5558082872        5.1468358982       -2.0602535139
 O        -8.1995887092        5.6267052679       -2.9969071944
 C        -8.2017282370        4.1621161485       -1.1156138083
 C        -9.7363019673        4.3794023847       -0.8395485112
 C       -10.1348175561        3.4820356132        0.2719705495
 O        -9.3648756499        2.7402556436        0.8361005344
 C       -11.6719728616        3.5283569786        0.7293390039
 C       -12.1694389838        2.0104866508        1.0522277510
 O       -11.9793563691        1.5362645674        2.1409620768
 C       -12.7949637716        1.2662909948       -0.1054509688
 C       -12.7910787131       -0.2545025349        0.1088372546
 C       -11.3306297672       -0.8456284341        0.0476487830
 O       -10.3516598171       -0.1653226280        0.1401657158
 C       -11.1751944932       -2.4054836193       -0.1324769319
 C       -10.2144591039       -2.8228696030        1.0906655787
 O       -10.7014445493       -3.2583695041        2.0895501574
 C        -8.7605627712       -2.4742008209        0.8880195549
 C        -7.9697506456       -2.6710646319        2.2234699545
 C        -7.9917178508       -1.4448325084        3.0728675130
 O        -7.7886913780       -0.3574184659        2.5328432675
 C        -8.2928343828       -1.4591075088        4.6023702772
 C        -9.7401130679       -1.0271724405        4.7557935539
 O       -10.1275628262        0.0038182395        4.2187934832
 C       -10.7193127993       -1.6796732988        5.7368076493
 C        -7.8784639254       -2.8402674579        5.3033596729
 C        -7.4395529802       -0.3241155126        5.1450242712
 C       -12.4463429480       -3.1671710815        0.1155491325
 C       -10.5831575403       -2.6945700925       -1.5781590758
 C       -11.6453351386        4.3622486396        2.0664756160
 C       -12.6103578245        4.2612126967       -0.2782388827
 C        -5.6249424624        6.2866024552       -3.2048616258
 C        -5.1068342950        4.3143726712       -1.6305708206
 C        -9.0571367776       11.5602262163       -0.4832517920
 C        -8.8879545478        9.9098255801        1.5339195858
 C       -10.5258556578        6.3038222340       -4.9408075428
 C       -12.5385472555        7.5777905631       -5.9825379574
 H       -15.0803706680        5.1888719358       -4.1139403067
 H       -14.4906892934        5.7962987341       -5.7270743472
 H       -14.9040722308        6.8419989116       -4.4037129054
 H       -10.1769361645        7.2797387742       -2.5164655511
 H       -11.5728560320        7.2294900763       -1.5178886200
 H       -11.5220150694        9.8485621967       -1.7183037386
 H        -9.9465966818        9.6647977825       -2.5919620120
 H        -6.9160345677        8.0530094259        0.7827126295
 H        -5.9173349661        9.5326004036        0.6571510650
 H        -4.5677816157        8.0671761852       -0.4402848180
 H        -5.7866082353        8.1701096552       -1.7785874372
 H        -7.7042154188        4.1663436237       -0.1777439574
 H        -7.9405594460        3.2541294342       -1.5637405093
 H       -10.3273388863        4.2678100937       -1.7967690139
 H        -9.8985713665        5.4030708007       -0.5847333086
 H       -12.3162014932        1.5486103024       -1.0743541778
 H       -13.8081737235        1.6844679571       -0.2304160411
 H       -13.4189760915       -0.6022730145       -0.7304686739
 H       -13.3919895861       -0.4023273471        1.0087064801
 H        -8.6561912324       -1.3863442177        0.6477403895
 H        -8.2601049358       -3.0436976723        0.0766761427
 H        -6.8463352519       -2.7252348449        2.0712833069
 H        -8.4263564714       -3.6097043123        2.6048514370
 H       -11.4536429583       -0.8615947293        5.9463842619
 H       -10.2649712804       -2.0157196706        6.6396068303
 H       -11.3300566629       -2.5182975135        5.3498530652
 H        -8.4148870244       -3.5889622519        4.7996567513
 H        -8.0581676782       -2.9478746313        6.3728276072
 H        -6.8253597610       -3.0085323906        5.0350619813
 H        -7.7395250822        0.5539018720        4.5861141765
 H        -6.3964256278       -0.5820362929        5.1094960918
 H        -7.5981835148       -0.0807559369        6.2710643948
 H       -13.2375675661       -2.9790035968       -0.5917763730
 H       -12.8797958935       -2.9840226748        1.1603130027
 H       -12.1854579494       -4.2228888537        0.2620901263
 H       -10.5179854258       -3.7916433639       -1.6242715632
 H        -9.6258423348       -2.2408909490       -1.7194256439
 H       -11.2528281867       -2.2679692985       -2.3141246058
 H       -10.8962783804        3.8815881113        2.7435642291
 H       -12.6088041837        4.2763344136        2.5251871942
 H       -11.2764293258        5.4092202199        1.9150111276
 H       -13.5487273287        4.3735760707        0.2693233458
 H       -12.7760708090        3.6156706886       -1.1288662190
 H       -12.2461420700        5.2580610490       -0.5278213920
 H        -4.5949197781        6.7535133170       -3.0856986836
 H        -6.3420561035        7.1592313237       -3.2666431207
 H        -5.5867249410        5.6181611787       -4.0495079636
 H        -5.0473119541        3.5882340044       -2.4030994942
 H        -5.2714340056        3.8711366789       -0.7415981286
 H        -4.1705809718        4.7624812538       -1.5025648195
 H        -8.1701351280       12.1685101773       -0.2950435802
 H        -9.9005116935       12.0243455085       -0.0675346988
 H        -9.2272200745       11.4495401978       -1.5732056663
 H        -9.7647906163       10.3836169809        2.0328595740
 H        -7.9509653832       10.3981346985        1.9687060451
 H        -8.7674058133        8.8695660975        1.7666018506
 H       -10.1624432772        5.9057060563       -4.0289121631
 H        -9.8051237878        7.1293673784       -5.0440890461
 H       -10.5639737331        5.5663282171       -5.7374911182
 H       -12.8742835137        6.8171924134       -6.7571643778
 H       -11.8214261663        8.0816479628       -6.4937804907
 H       -13.3640465631        8.1612532496       -5.7120883658
 Na       -9.6356321173        1.1943190635        2.3779240537
