117

 C       -14.3050886224        5.1828331586       -4.4474843777
 C       -12.9053849136        5.6409677258       -3.9798631789
 O       -12.4873939669        5.1767192236       -2.9267968556
 C       -12.1269463330        6.7138955881       -4.7857859691
 C       -11.7251958438        7.9063810541       -3.8962659442
 O       -11.8852314742        9.0318963452       -4.3946464532
 C       -11.0874849326        7.7486733775       -2.5054903278
 C       -10.5658715276        9.0080095449       -1.8955613870
 C        -9.8899347548        8.8376756577       -0.5686622544
 O       -10.0451787206        7.8407855686        0.0803857064
 C        -8.8870103448        9.9680417085       -0.1686589371
 C        -7.5437089284        9.6053165676       -0.9408369139
 O        -7.5271933352        9.6264565292       -2.1802493124
 C        -6.3209018147        9.0106269257       -0.1462125172
 C        -5.5296145258        8.0500286032       -1.0630669311
 C        -6.0311900913        6.5567935353       -0.8738506563
 O        -6.3826082814        6.2264742502        0.2072514415
 C        -5.9922376575        5.5007382292       -2.1394753230
 C        -7.4408159942        5.0337550162       -2.2704659594
 O        -8.1606698306        5.4150749777       -3.1414302300
 C        -8.0235156039        3.9108397296       -1.2697476704
 C        -9.4850189532        4.1983056553       -0.8531448958
 C        -9.9833465520        3.5239742767        0.4209701572
 O        -9.2546312569        2.7028373720        0.9542204759
 C       -11.4326917950        3.6955468492        0.9973599967
 C       -12.0619968283        2.2787470281        1.0455762429
 O       -12.2166046783        1.6532765167        2.1158289927
 C       -12.4919198007        1.6647665895       -0.2846376331
 C       -12.7262203818        0.0946573601       -0.2862140309
 C       -11.4467878004       -0.7002056894       -0.1032760451
 O       -10.3877224709       -0.0705200920        0.0533284061
 C       -11.4525549473       -2.1990212848        0.0776890541
 C       -10.4835170098       -2.4871536316        1.2956754801
 O       -10.9793743323       -2.4015563223        2.4287918309
 C        -9.0424692369       -2.9886916750        1.1197755747
 C        -8.3009259772       -3.0309480243        2.4479125197
 C        -8.2812060424       -1.6097134680        3.2295878394
 O        -8.1271654184       -0.5284235519        2.6982342716
 C        -8.3413707894       -1.5515772512        4.8060531996
 C        -9.7568708720       -0.8521314917        5.1176675545
 O       -10.2549983678       -0.0601835213        4.3511529798
 C       -10.5535612573       -1.2482382641        6.3216259236
 C        -8.1121066859       -2.8495106830        5.5541806387
 C        -7.3198692805       -0.5071679470        5.4219609207
 C       -12.8503077627       -2.7965042155        0.4465923511
 C       -11.0695414483       -2.8904141278       -1.2983115816
 C       -11.1966369264        4.2314346560        2.4504012175
 C       -12.3376872131        4.7653070646        0.2135052987
 C        -5.5317764946        6.0836085486       -3.4904156394
 C        -4.9581644946        4.3820130256       -1.6198892681
 C        -9.3778995761       11.3252752345       -0.7187053724
 C        -8.8141174069       10.1570425114        1.4220873090
 C       -10.8609746232        5.8834732713       -5.2612097112
 C       -12.9120507582        7.1517409506       -6.0744941081
 H       -14.8064935442        4.4152441394       -3.8875980766
 H       -14.1698383078        4.6541153257       -5.3788986909
 H       -15.0269398561        5.9892167915       -4.7437927956
 H       -10.2589977653        7.0130989689       -2.5834381193
 H       -11.8785996361        7.3066958769       -1.8383542639
 H       -11.3428769360        9.7358248283       -1.7814497245
 H        -9.8222867304        9.4333150634       -2.5846459338
 H        -6.7661578740        8.4824218378        0.7226107516
 H        -5.8111936903        9.9330269263        0.2981939336
 H        -4.4255110855        8.1156725843       -0.7491757655
 H        -5.6124467893        8.2735907706       -2.1085438984
 H        -7.4348793368        3.7246004867       -0.3019581662
 H        -8.0867145537        2.8727978740       -1.6967246493
 H       -10.3000781185        3.9661267481       -1.5907761852
 H        -9.6279066985        5.2536826390       -0.7739040230
 H       -11.7014307085        1.8275375809       -0.9961696712
 H       -13.3409200225        2.2261690539       -0.6873844900
 H       -13.1184501593       -0.0477481895       -1.2588321153
 H       -13.6500691078       -0.0791937217        0.4202404473
 H        -8.5917345594       -2.1901550184        0.4855758931
 H        -8.9507673356       -3.9648809558        0.6058169792
 H        -7.2873989349       -3.4565400525        2.4784615933
 H        -8.9281601045       -3.7466567913        2.9057262316
 H       -11.4901244536       -0.7680042624        6.3695350801
 H       -10.0052767246       -0.9529868227        7.2831824854
 H       -10.6819411354       -2.3160095578        6.3197578502
 H        -8.7592719662       -3.6417833770        5.1354537407
 H        -8.2629842205       -2.6647925327        6.6161543042
 H        -7.0359616750       -3.0795798104        5.4121151168
 H        -7.3218083100        0.3666018833        4.7089418861
 H        -6.3098554609       -0.8188850652        5.3289682400
 H        -7.6803445411       -0.1976200048        6.3518234835
 H       -13.5864925132       -2.5280695632       -0.2430179307
 H       -13.1059164806       -2.5484579685        1.4385344234
 H       -12.7093276463       -3.8488843501        0.2495203525
 H       -11.0032941279       -3.9969631702       -1.1017959948
 H       -10.1719811170       -2.5590623278       -1.6885919885
 H       -11.9330978944       -2.7867967370       -1.9731433432
 H       -10.2954305106        3.8730675805        2.9105439835
 H       -11.9880623898        3.9820293770        3.1508759202
 H       -11.2172769990        5.2795910741        2.4558813383
 H       -13.3799906637        4.5373559808        0.2933037519
 H       -12.1223781923        4.9022041400       -0.8321995603
 H       -12.2490410462        5.8004421135        0.6618943681
 H        -4.5995883193        6.5357138345       -3.3188861822
 H        -6.2698852190        6.7662134792       -3.7687264020
 H        -5.5628707109        5.3712381864       -4.2717228899
 H        -4.8286909838        3.5014417186       -2.2939877897
 H        -5.2015941522        3.9732648113       -0.5334726965
 H        -3.9627232085        4.8584100518       -1.7165872635
 H        -8.6154522685       12.0702450889       -0.5459720580
 H       -10.3240426033       11.6159897559       -0.2761537230
 H        -9.4979438704       11.2105520252       -1.8309613450
 H        -9.5977726419       10.7636540959        1.8315603076
 H        -7.8070621776       10.4865223225        1.6703419430
 H        -8.9227118678        9.1807313900        1.8854679403
 H       -10.4403204357        5.3008932386       -4.4652824834
 H       -10.2194908817        6.5943451730       -5.7500055325
 H       -11.0395264073        5.2093117220       -6.1219569178
 H       -12.9837237408        6.3001237172       -6.7313709493
 H       -12.3403433407        8.0297947371       -6.4147519031
 H       -13.9162404970        7.5964738105       -5.8445736497
 Na       -9.8547977008        0.8777215892        2.2725908795
