117

 C       -14.2986121673        5.3425049774       -4.5950840614
 C       -12.9919029255        5.6502099322       -3.9997277280
 O       -12.6153013713        5.1216992620       -2.9594486798
 C       -12.0442219170        6.6947417012       -4.7598044910
 C       -11.8036851662        7.9361346443       -3.7270668376
 O       -12.1738950915        9.0248457316       -4.0388673911
 C       -11.0337219322        7.6053334608       -2.4160488149
 C       -10.5741402027        9.0064088475       -1.9483849908
 C       -10.0056439838        8.9613842435       -0.5425960439
 O       -10.1526419119        7.9800023155        0.2318815675
 C        -8.9530394766       10.0072221834       -0.1727045958
 C        -7.6067184770        9.5214848998       -0.8728143622
 O        -7.5555340411        9.5998687197       -2.0509567231
 C        -6.4352190870        8.8642502164       -0.0051806820
 C        -5.5522522286        7.9697432993       -0.9175481276
 C        -6.0922203008        6.5275134038       -0.8930644898
 O        -6.5424948081        6.1180179040        0.1674731943
 C        -6.0026390123        5.4894715991       -2.1284812485
 C        -7.5385642869        5.0391270235       -2.2472349664
 O        -8.1396163694        5.3473805608       -3.2890732491
 C        -8.0460912415        4.2193560591       -1.1287151200
 C        -9.5385571401        4.3358456509       -0.8414449101
 C        -9.9573128358        3.4684029678        0.3465820297
 O        -9.0919214280        2.8603348541        0.9654366751
 C       -11.4506063445        3.5784238980        0.9208983447
 C       -12.0071414008        2.1207066880        1.0069974805
 O       -11.9315942962        1.4623648963        2.0135457878
 C       -12.7005919238        1.5525091116       -0.2256658002
 C       -12.8224578061        0.0414435187       -0.1844658992
 C       -11.5071266326       -0.6169465232        0.0355385353
 O       -10.4150192225       -0.0679628438        0.1177666627
 C       -11.4234580095       -2.1981082696        0.0622928045
 C       -10.4075540860       -2.6377956558        1.3577446398
 O       -10.9035226534       -2.7256523318        2.4283115902
 C        -8.8968828677       -2.6143861682        1.0198926800
 C        -8.1124900926       -2.8969870294        2.3780524245
 C        -8.2157250229       -1.5809486013        3.1720249354
 O        -7.9654336935       -0.5526280304        2.5483300641
 C        -8.3888411572       -1.5425686020        4.7368651293
 C        -9.7875479150       -0.9429418565        5.0247213197
 O       -10.3103933811       -0.0947326559        4.3585757044
 C       -10.5172902966       -1.3336438251        6.3048977679
 C        -8.1654571111       -2.8542097924        5.4827275191
 C        -7.4521220997       -0.4229446658        5.2964818898
 C       -12.8996958044       -2.7714085819        0.2715452201
 C       -10.8356541516       -2.7041597526       -1.2728695576
 C       -11.3556101439        4.1868527043        2.3430480097
 C       -12.4081986487        4.3376121369        0.0488776712
 C        -5.3604945982        6.1412244407       -3.4383695634
 C        -5.1585772946        4.3397032210       -1.6675643124
 C        -9.2032974311       11.4708671846       -0.7781441901
 C        -8.7987582386       10.0830981249        1.3583853255
 C       -10.6735002661        6.0761128576       -5.0976555228
 C       -12.7606763594        7.3190468433       -6.0556889935
 H       -14.7643755276        4.5348246625       -4.0043194314
 H       -14.4575184659        5.1061958044       -5.6602972134
 H       -14.9343137304        6.1802633186       -4.3930686101
 H       -10.1973115503        6.9504191142       -2.6635013433
 H       -11.6805863043        7.0735498105       -1.7343690315
 H       -11.4984760729        9.6144588123       -2.0711577071
 H        -9.7992985187        9.4260945505       -2.5781909931
 H        -6.9884905901        8.3782834716        0.8271240848
 H        -5.8954687290        9.6998649045        0.3934906494
 H        -4.6116062761        7.8393407735       -0.4312103220
 H        -5.4286912276        8.4092573994       -1.9541665945
 H        -7.4379883597        4.3208476436       -0.2569135750
 H        -7.8883982337        3.1768182929       -1.4627182732
 H       -10.1394191772        4.0850059621       -1.6955025488
 H        -9.8534959397        5.4250907563       -0.7311033032
 H       -12.1295594696        1.8431449116       -1.1318734793
 H       -13.6576571321        2.0657155027       -0.3650965966
 H       -13.3635861786       -0.2616188949       -1.1378374497
 H       -13.4734119061       -0.1326820920        0.5889517699
 H        -8.5027429186       -1.6265828547        0.8693815396
 H        -8.5663921018       -3.2515916878        0.2102895900
 H        -7.0648288425       -2.9664900238        2.1335221572
 H        -8.4674661701       -3.8414506616        2.8517655596
 H       -11.5491271674       -0.9752887700        6.2129468714
 H       -10.1328865981       -0.8235754628        7.1063625653
 H       -10.5134108031       -2.3804902742        6.5197047893
 H        -9.0482243243       -3.4471568372        5.2666268684
 H        -8.1629943068       -2.5867916953        6.5400403432
 H        -7.2490613188       -3.3434660641        5.2425561851
 H        -7.6049391003        0.5467996887        4.9430771873
 H        -6.3756650596       -0.6518761899        5.0382194150
 H        -7.5617559337       -0.5428494424        6.3998196985
 H       -13.5459357443       -2.6209419554       -0.6472959982
 H       -13.3270894638       -2.2632220346        1.1334584099
 H       -12.8684504445       -3.8473225088        0.3962358694
 H       -10.8542271790       -3.7627188407       -1.2741338552
 H        -9.7413420123       -2.3673263798       -1.2843327902
 H       -11.4304801773       -2.3778900032       -2.1154834166
 H       -11.3929978949        3.4211548122        3.1284706189
 H       -12.2024878863        4.8540420697        2.5544763513
 H       -10.4725801740        4.8493561725        2.4766667325
 H       -13.4284623839        4.3298616212        0.4882383986
 H       -12.4288426770        3.9543993655       -0.9965715794
 H       -12.1252146969        5.3499212773       -0.0552314470
 H        -4.3844627793        6.4990567778       -3.1293807999
 H        -6.0281516984        6.8598482858       -3.9174076123
 H        -5.1940220894        5.3442116950       -4.2019084626
 H        -5.1838800061        3.4783436940       -2.3326684226
 H        -5.4978209927        4.0580894427       -0.7362052778
 H        -4.0869876601        4.5861274091       -1.6400599377
 H        -8.8685715408       12.2121022643       -0.0424769563
 H       -10.2705635565       11.6165653888       -1.0120240261
 H        -8.6602900632       11.5808403483       -1.6724933269
 H        -9.7314792450       10.5429259020        1.7472596357
 H        -7.8640653024       10.5437424184        1.7083393337
 H        -8.7436999768        9.0424512236        1.7983418278
 H       -10.1341793478        5.7069364608       -4.2063057112
 H       -10.0826517845        6.7697944497       -5.7134674093
 H       -10.8625756368        5.2185010581       -5.6880576683
 H       -13.0631165301        6.4860195205       -6.6710603355
 H       -12.0063086547        7.9774657497       -6.5409899773
 H       -13.5874566427        7.9605347256       -5.7945185831
 Na       -9.7316260018        0.9408878001        2.2323941602
