117

 C       -14.3047145251        5.0293958731       -4.3164208690
 C       -12.9583970561        5.5961107515       -3.9685339246
 O       -12.3716795896        5.2016800454       -2.9578306999
 C       -12.1850956225        6.6318858397       -4.8948217156
 C       -11.6579381258        7.8649003169       -4.1097028513
 O       -11.6580260477        8.9463428843       -4.6230493577
 C       -11.1605139634        7.6061889407       -2.6518630574
 C       -10.5573862244        8.9301958656       -2.0511341733
 C        -9.8055287264        8.8055237418       -0.6724118464
 O        -9.8990508192        7.7878272853       -0.0129323516
 C        -8.8987009563        9.9563991902       -0.1955974802
 C        -7.6024091479        9.6398751253       -1.0432543092
 O        -7.5591176609        9.7722099366       -2.2402168513
 C        -6.2912779906        9.0621579262       -0.3312195250
 C        -5.6516836016        8.0529970387       -1.2063936410
 C        -6.0019696003        6.5866153585       -0.8314284302
 O        -6.3039546480        6.2323474687        0.2989908295
 C        -6.0101594150        5.4854673363       -2.0644951026
 C        -7.5154588989        4.9388824405       -2.0758936901
 O        -8.2395626424        5.4482147118       -2.9379904005
 C        -7.9980343861        3.9051780453       -1.1431813717
 C        -9.4665178950        4.2922965429       -0.7525478120
 C        -9.9533216095        3.5173127411        0.4388064330
 O        -9.2823568297        2.5574619911        0.8045534454
 C       -11.3297216026        3.8075016600        1.0595031428
 C       -12.0907298658        2.4042098244        0.9472425353
 O       -12.3532218109        1.7963679319        1.9352687445
 C       -12.3542902977        1.7789102479       -0.3737061344
 C       -12.6253745619        0.2625773600       -0.2457760636
 C       -11.4308505637       -0.6066363615       -0.0473949182
 O       -10.2783413218       -0.2148958678       -0.0314432349
 C       -11.5741014481       -2.2352668180        0.1850863324
 C       -10.5863541028       -2.4045748142        1.4688354778
 O       -11.0255884095       -2.0433058090        2.5262691940
 C        -9.1256256136       -3.0249538469        1.2693697010
 C        -8.4972462892       -3.1502844370        2.6874846845
 C        -8.2643255904       -1.7247932802        3.1649627069
 O        -8.1735937301       -0.6813442713        2.5004308980
 C        -8.4252972349       -1.4382611595        4.7671474187
 C        -9.7813722466       -0.8162305472        5.2039277973
 O       -10.2716086352        0.0498376271        4.4782833500
 C       -10.4933725838       -1.3614686795        6.4736246884
 C        -8.2427124006       -2.9241240742        5.5443525704
 C        -7.2932294073       -0.5002148151        5.2411890122
 C       -12.9521154472       -2.7418496986        0.5418899799
 C       -10.9861733687       -2.8730358087       -1.0851349883
 C       -11.1038455045        4.1612394911        2.5175329084
 C       -12.0492681833        4.9631633951        0.3512152463
 C        -5.6467437009        6.1571712029       -3.3837288507
 C        -4.9345623318        4.3860275195       -1.6928473324
 C        -9.3748316759       11.3733684620       -0.6136225032
 C        -8.5885262976        9.8625008627        1.2917556605
 C       -10.8912670717        5.9000721361       -5.3405658732
 C       -13.0379973684        7.0449111950       -6.1012727797
 H       -14.7329107742        4.4350394727       -3.4906591026
 H       -14.3800521011        4.2392930613       -5.0919154789
 H       -14.9430176753        5.8137474125       -4.6291708877
 H       -10.3934915089        6.8273435335       -2.6907039035
 H       -11.9845206498        7.2780133918       -2.0595843519
 H       -11.3310430647        9.7167989794       -1.7750415020
 H        -9.9147469260        9.3606618853       -2.8460545379
 H        -6.5114196280        8.6727329770        0.6310887723
 H        -5.7097515611        9.9143600887       -0.0896230495
 H        -4.6128458361        8.2037128469       -1.2321974112
 H        -5.9661477390        8.1408338773       -2.2845506882
 H        -7.4330091943        3.7077619135       -0.3070181841
 H        -8.0640286656        2.9788332148       -1.6406212824
 H       -10.1918572198        4.1985652161       -1.5360426436
 H        -9.5437479229        5.3864757440       -0.4969859600
 H       -11.5444317684        1.9343055208       -1.1297369437
 H       -13.2447174856        2.3209164839       -0.7404080666
 H       -13.2605444738       -0.0292535248       -1.1084673130
 H       -13.2594050868        0.1947313556        0.5402253805
 H        -8.4847221790       -2.3411922912        0.7021222641
 H        -9.2501436299       -3.9694786673        0.7218450402
 H        -7.5564575880       -3.7315693419        2.7399253334
 H        -9.2194245949       -3.7871640201        3.3182899821
 H       -11.2614294542       -0.6011304487        6.8027731475
 H        -9.8645503576       -1.5711970720        7.3170415424
 H       -11.0658598184       -2.3023844527        6.1839602935
 H        -9.1231135378       -3.5033063249        5.4163417864
 H        -7.9827030087       -2.7933726858        6.5943338095
 H        -7.4215414363       -3.4202441792        5.0607237951
 H        -7.2118625194        0.3619826623        4.6153205237
 H        -6.3679817727       -1.0267442110        5.0133560757
 H        -7.5457131435       -0.1369628144        6.2965502604
 H       -13.6436028886       -2.5295436312       -0.3077851075
 H       -13.2209483214       -2.1158297929        1.4563165184
 H       -12.9280146386       -3.8168561907        0.7225032705
 H       -10.7671968521       -3.9014442144       -0.9330643915
 H       -10.0470347979       -2.3353351966       -1.4175436624
 H       -11.7264323478       -2.8031216809       -1.8774588943
 H       -10.0219180272        4.1968679327        2.7154655173
 H       -11.4787890791        3.3992688239        3.1835685114
 H       -11.5736991578        5.0821122503        2.9601293221
 H       -12.8922437388        5.3751576794        0.9460416704
 H       -12.5070156861        4.6905039169       -0.6169276585
 H       -11.4391125741        5.7982317760        0.1486703082
 H        -4.6757935193        6.7086418380       -3.2200691555
 H        -6.4625999071        6.9113904608       -3.6626463937
 H        -5.6472073067        5.4228516242       -4.2092928279
 H        -4.8821495815        3.5542200298       -2.3462242515
 H        -5.1109646595        4.0226395301       -0.7588626430
 H        -3.9847556806        4.8564576237       -1.6972717665
 H        -8.5552512659       12.0498871131       -0.3019163582
 H       -10.3028142248       11.6966151510       -0.1488825955
 H        -9.4331541823       11.3982209710       -1.6769214313
 H        -9.4600324708       10.0536913303        1.9172532426
 H        -7.8786825716       10.6548503679        1.5227394667
 H        -8.2679864948        8.8869480180        1.5996080746
 H       -10.4156514342        5.5701966359       -4.3907057752
 H       -10.3168134266        6.5129301158       -6.0754657225
 H       -11.0161447604        5.0039370585       -5.9389089365
 H       -13.4309655363        6.1139047192       -6.5825044055
 H       -12.5275535968        7.7384668317       -6.6795443664
 H       -13.8268178676        7.5552758394       -5.6472871914
 Na      -10.0087458594        0.8540419312        2.2605342090
