117

 C       -14.2959595493        5.1959170471       -3.8448055501
 C       -12.8147995180        5.2301792903       -3.8911512834
 O       -12.0885021535        4.7581943773       -3.0361109936
 C       -12.1539279165        6.1717538342       -4.9830248005
 C       -11.4758658930        7.5005045967       -4.3267924752
 O       -11.5342215365        8.5680051818       -4.9401705616
 C       -10.8008378796        7.3203286025       -2.9277211931
 C       -10.0606485076        8.5911957641       -2.4410295857
 C        -9.6628502081        8.4755415835       -0.9539068524
 O       -10.0327844380        7.4992728453       -0.2417501306
 C        -8.7384116891        9.5889247012       -0.3682412302
 C        -7.4614553040        9.7554084510       -1.2498861863
 O        -7.6859838783       10.1967894435       -2.3653670664
 C        -6.1044357851        9.2964001876       -0.7978792688
 C        -5.4641916338        8.2057073514       -1.6171374891
 C        -5.7163405190        6.7827181886       -1.1044284535
 O        -5.5277693262        6.4756392084        0.0672178531
 C        -5.9466041058        5.6252373758       -2.1513662874
 C        -7.3619498028        5.0458219683       -1.9276075827
 O        -8.2641874356        5.3682674482       -2.7147398205
 C        -7.8557859800        4.3530568167       -0.6443204169
 C        -9.3469709535        4.4718264243       -0.3114250894
 C        -9.8044961994        3.5480016682        0.8040292575
 O        -9.0177529472        2.7664370054        1.3337976949
 C       -11.3084289116        3.7144788868        1.2746066573
 C       -11.9937217670        2.3285411117        0.9034100733
 O       -12.0010068202        1.4398755438        1.7339626036
 C       -12.6117936105        2.0504083168       -0.4656209908
 C       -12.8696306039        0.5211321946       -0.5931159457
 C       -11.6905567672       -0.3460312817       -0.1050179968
 O       -10.5432014537        0.0673489315        0.0168286602
 C       -11.9525960843       -1.8783621877        0.2898163030
 C       -11.0930155396       -2.0462339480        1.6106144351
 O       -11.2144226341       -1.3130064988        2.5356576540
 C        -9.9400411294       -3.1392847957        1.6523101195
 C        -9.3818930039       -3.1966747006        3.0378527925
 C        -8.6719160389       -1.8978184700        3.4049583193
 O        -8.3519001517       -1.1963839981        2.4551523429
 C        -8.4468631735       -1.3168494296        4.8498733567
 C        -9.6624660827       -0.5193682620        5.3425607267
 O       -10.0673762113        0.4068071756        4.6219931191
 C       -10.5561003300       -0.9643726858        6.5420514658
 C        -8.1488737564       -2.6141082456        5.7126980199
 C        -7.2688297773       -0.4310262919        4.7844458241
 C       -13.4372192160       -2.1588716798        0.6413276300
 C       -11.5018453662       -2.7707193481       -0.9258835500
 C       -11.1704668159        3.8367956047        2.8275259030
 C       -11.9869439450        4.9635555218        0.5848377326
 C        -5.7745561172        6.0061861414       -3.5789715997
 C        -4.7714908895        4.5491463267       -1.8897609185
 C        -9.5667677422       10.9853903737       -0.3984156838
 C        -8.4761514748        9.2346655830        1.1385203685
 C       -10.9121955143        5.4212348025       -5.7177223869
 C       -13.1619706473        6.4767138346       -6.1230124244
 H       -14.5659635298        4.4158583787       -3.0875231684
 H       -14.8663554554        4.9474843221       -4.7526440508
 H       -14.6199165063        6.1481181326       -3.4739217874
 H       -10.0873642143        6.5011678933       -3.0465806282
 H       -11.6044875126        7.0123148704       -2.1919761674
 H       -10.7124303781        9.4345069112       -2.4405173841
 H        -9.2647634626        8.8045861701       -3.1243765041
 H        -5.9362492835        9.1841904257        0.3218350031
 H        -5.5362897820       10.2506339632       -0.9958573456
 H        -4.3850820245        8.3722564921       -1.6918048821
 H        -5.7062803492        8.2137386051       -2.7175996106
 H        -7.4010072055        4.8384176699        0.2691132310
 H        -7.4477388071        3.2656689813       -0.6136284771
 H        -9.8160470584        4.3224990890       -1.2713529273
 H        -9.5895954270        5.5408390252       -0.0356609351
 H       -11.8477696394        2.2862768115       -1.1866952977
 H       -13.5149832613        2.6509387786       -0.6289968371
 H       -13.1987964444        0.2698139227       -1.6671965425
 H       -13.7556459276        0.3506408071       -0.1273002795
 H        -9.1795757077       -2.8488846499        0.9534493326
 H       -10.2647518668       -4.1333483357        1.2900762497
 H        -8.7620580774       -4.0412990673        3.1807409525
 H       -10.2435858089       -3.4188928136        3.6813248524
 H       -11.3576090940       -0.2723295699        6.4849533482
 H       -10.1433388706       -0.9060825853        7.4854522399
 H       -11.0025439454       -1.9413011296        6.4190642797
 H        -9.0064877814       -3.2729156765        5.6085338662
 H        -8.0143616652       -2.4462679466        6.7835292091
 H        -7.2879579580       -3.0579126757        5.2559030136
 H        -7.4514001994        0.2152653700        4.0071963657
 H        -6.3889887252       -1.0156916805        4.6996236616
 H        -7.0620887171        0.1257627656        5.7201253966
 H       -14.0710713362       -1.9652104771       -0.2364126005
 H       -13.6412796650       -1.4563902716        1.4876548476
 H       -13.5013804405       -3.1456447706        1.0310099425
 H       -11.7869588212       -3.7941483197       -0.7223476211
 H       -10.3863040039       -2.7847334140       -1.1793485731
 H       -12.0343726815       -2.5367431420       -1.8622052951
 H       -10.8943272416        4.8249615678        3.2104932219
 H       -10.4405279480        3.1326183584        3.2209016455
 H       -12.1422016756        3.6483241966        3.3732748089
 H       -12.8977081510        5.2786813406        1.1330660890
 H       -12.3139720668        4.7911924341       -0.4577747470
 H       -11.3976349079        5.8379073785        0.5332472850
 H        -4.9313222980        6.6709541852       -3.6926460841
 H        -6.6656129303        6.5972657926       -3.8335008234
 H        -5.5402187880        5.1825411587       -4.2392046241
 H        -4.7768243965        3.7680882962       -2.7190227648
 H        -4.8964736647        4.0767509572       -0.8916994286
 H        -3.7649462784        5.0116660755       -1.9801099432
 H        -8.9259271934       11.7329614562        0.0658748203
 H       -10.5181176417       10.9402515812        0.1526853968
 H        -9.7041874672       11.2726420498       -1.4017830303
 H        -9.4229623372        9.1601101626        1.7378151355
 H        -7.8753321419       10.0256694336        1.6553469595
 H        -7.8991824422        8.2807664194        1.1564850186
 H       -10.0364000824        5.2993859957       -5.1165451248
 H       -10.5183734698        6.1526185462       -6.4022285814
 H       -11.1926607376        4.5239009084       -6.1323153114
 H       -13.5789026442        5.4473416634       -6.5086115403
 H       -12.6274835550        6.9729295856       -6.9001744844
 H       -13.9475320149        7.0569247800       -5.6363804484
 Na       -9.6669543459        0.8665231331        2.3774759515
