117

 C       -14.2601492143        5.2895690714       -3.6583424786
 C       -12.7445012119        5.1403454729       -3.8502271213
 O       -12.0568827559        4.4459139924       -3.1078694225
 C       -12.0112285097        5.9918068732       -4.9632971498
 C       -11.4679681252        7.3697322339       -4.2701570478
 O       -11.6323849312        8.4327086722       -4.7804374797
 C       -10.7351828875        7.1494232153       -2.9371241405
 C       -10.0747917962        8.4231594187       -2.5407516595
 C        -9.6231749961        8.3555478282       -1.0824975328
 O       -10.1196508499        7.5468071670       -0.3486351544
 C        -8.7587331891        9.5896129768       -0.4406565448
 C        -7.5239106999        9.7558614512       -1.3354353637
 O        -7.5583252391       10.1750446715       -2.4578217053
 C        -6.0200417564        9.3887168725       -0.8466231013
 C        -5.4819597169        8.2954355212       -1.7422552508
 C        -5.5878285533        6.8455125190       -1.1488197340
 O        -5.5135716598        6.6183527134        0.0328400303
 C        -5.8756580690        5.6625664138       -2.0896993220
 C        -7.3582386276        5.0824608125       -1.8612383514
 O        -8.2140602653        5.2025104705       -2.7147287888
 C        -7.6498333420        4.4731988258       -0.5421305226
 C        -9.2392648890        4.3801339336       -0.3995749928
 C        -9.6850845698        3.5758294190        0.7783258221
 O        -8.9560816106        2.8950800032        1.4707374081
 C       -11.2251718861        3.7390600764        1.2314387828
 C       -11.9102605378        2.3756611618        0.9112331518
 O       -12.0026507291        1.5419669931        1.7909661269
 C       -12.4202722227        2.0791772573       -0.5261541736
 C       -12.9085566349        0.6466781424       -0.6311191702
 C       -11.7783888175       -0.2328196554       -0.1754780017
 O       -10.6313144199        0.1550354361       -0.1266491184
 C       -12.0997136955       -1.7667979794        0.3159884918
 C       -11.2905576754       -1.9150192474        1.6933028009
 O       -11.4765728475       -1.1323453352        2.6391304410
 C       -10.3083326810       -3.0805050207        1.7974077479
 C        -9.5254135426       -3.0796982638        3.1501447353
 C        -8.5975333072       -1.8880723401        3.2932822548
 O        -8.2549754787       -1.2435486404        2.3406436872
 C        -8.5261843692       -1.3478624623        4.8167887964
 C        -9.7417984839       -0.4837625308        5.2348353206
 O        -9.9869502272        0.5068910670        4.6003956976
 C       -10.4339513919       -0.8138714010        6.5191554961
 C        -8.1631202940       -2.5344617038        5.7874616688
 C        -7.2716515703       -0.4605435295        4.8510014941
 C       -13.5595415160       -2.0809369351        0.6363376815
 C       -11.5396927050       -2.7412195350       -0.7761457648
 C       -11.3661412342        3.9108311513        2.8080092572
 C       -12.0604012165        4.9245024619        0.5945480619
 C        -5.8448040571        6.0597954097       -3.5898798400
 C        -5.0294725929        4.4321430047       -1.7889636024
 C        -9.6606986577       10.8107694327       -0.3754399876
 C        -8.3104711884        9.0973902961        0.9761083162
 C       -10.9084021521        5.1767074755       -5.5327656303
 C       -12.9866573264        6.5782048422       -6.0436271916
 H       -14.6317048538        5.0491661074       -2.6595854482
 H       -14.7611690341        4.7325152088       -4.4428028270
 H       -14.5935760200        6.3692043991       -3.7860408590
 H       -10.0674565162        6.2752699315       -2.8717964964
 H       -11.5633337226        6.9799993117       -2.2793140008
 H       -10.8458167270        9.2252046297       -2.7391718101
 H        -9.1934472548        8.6700984251       -3.1873235778
 H        -6.0728638913        9.0042252757        0.1369660224
 H        -5.4378316778       10.2818720134       -0.8216041042
 H        -4.3790442717        8.3808126525       -1.9323076355
 H        -5.8560560392        8.3210346097       -2.7149046942
 H        -7.3102623755        5.0728897932        0.2730062652
 H        -7.1488805403        3.5623466439       -0.4568860590
 H        -9.6801446412        3.9851136516       -1.3690233362
 H        -9.6129156133        5.3846217803       -0.3080005166
 H       -11.6435746056        2.1645619533       -1.3063629740
 H       -13.2211598799        2.8022655275       -0.7006689064
 H       -13.1673136816        0.4280324478       -1.6176034145
 H       -13.9548556310        0.5631639900       -0.1342754075
 H        -9.6034519563       -3.2058454307        0.9361863864
 H       -10.9754815778       -3.9400508574        1.6447795407
 H        -9.0283227703       -4.1023052114        3.2881125541
 H       -10.2104790337       -2.9687132510        4.0250780145
 H       -11.1095832019       -0.0606196962        7.0378747435
 H        -9.6526743063       -1.2157791330        7.2011959509
 H       -11.0180812368       -1.6937190521        6.2450016615
 H        -8.9976092825       -3.2366146952        5.9843599892
 H        -7.9290099122       -2.1176984326        6.7624660089
 H        -7.2773995337       -3.0591301785        5.3879524954
 H        -7.7054580451        0.4814226653        4.4435584460
 H        -6.4329390493       -0.8643958751        4.2011984709
 H        -6.8308220268       -0.3405755403        5.7979330468
 H       -14.1348653388       -1.9332602326       -0.2625025380
 H       -13.8503328156       -1.5007757144        1.4386972489
 H       -13.6433180674       -3.1630070818        0.8400003023
 H       -11.6281340953       -3.8238185880       -0.5847477982
 H       -10.5142983053       -2.5466406678       -0.9684865211
 H       -12.0921292620       -2.6343860928       -1.7047629074
 H       -10.5075452170        4.3363012274        3.2813180750
 H       -11.4479873864        2.9331930388        3.2871546202
 H       -12.1569399335        4.5245966664        3.0744514541
 H       -13.1073688977        4.7302570120        0.6096605751
 H       -11.7951004255        5.1911226354       -0.4181549391
 H       -11.9256850644        5.8772113112        1.1668407126
 H        -4.8927929867        6.3321472710       -3.9938142483
 H        -6.5609512257        6.8021122223       -3.7966402809
 H        -6.2212714638        5.1938664588       -4.1751872405
 H        -5.1922159224        3.6631567064       -2.5467517163
 H        -5.2479747707        4.0844130654       -0.8176332413
 H        -3.9359018573        4.6570424501       -1.9061728732
 H        -9.2338331616       11.5907065290        0.2455082217
 H       -10.6273199765       10.5012991436        0.0288199452
 H        -9.8309251650       11.1642843945       -1.4183561222
 H        -9.1987073097        9.0372436053        1.5789251986
 H        -7.6294158286        9.8098903528        1.4394379240
 H        -7.7986248243        8.1353338685        0.9580122180
 H       -10.1542638822        4.9174306509       -4.7865141249
 H       -10.2959343971        5.7349123660       -6.1865954957
 H       -11.3578401359        4.2346785436       -5.9383008899
 H       -13.3197513425        5.8282904835       -6.6119209728
 H       -12.2349199765        7.1408033688       -6.6550719065
 H       -13.7373345643        7.2480795152       -5.6251121001
 Na       -9.4601243962        0.7189286900        2.2987548533
