117

 C       -14.3259178423        5.0854938738       -3.8063206846
 C       -12.7971354048        5.3234546407       -3.8547717913
 O       -12.1223082332        4.8279773782       -2.9982256684
 C       -12.1968217145        6.2759865349       -5.0108654521
 C       -11.5269074331        7.5922688575       -4.3884205826
 O       -11.5095537056        8.6234925400       -4.9864331283
 C       -10.8730130311        7.3586986858       -2.9902772647
 C       -10.1807797069        8.6368660867       -2.4191528449
 C        -9.7343212670        8.4975903409       -0.9275478979
 O        -9.9721894428        7.4817860912       -0.2228189190
 C        -8.8118009011        9.6232283523       -0.3036357552
 C        -7.4826663549        9.7228969015       -1.2026634779
 O        -7.6273625294       10.1772067813       -2.2912776504
 C        -6.1459042875        9.2226585158       -0.6693080584
 C        -5.4742363709        8.2109549663       -1.6518203638
 C        -5.6835335757        6.7079739924       -1.1335172123
 O        -5.7029647625        6.4726744220        0.0486137834
 C        -5.9246539192        5.5951152726       -2.1953959604
 C        -7.4070378037        5.1188890264       -1.9438783367
 O        -8.2599238752        5.4287405123       -2.7823896014
 C        -7.7616103343        4.2861291358       -0.6871163586
 C        -9.2296483995        4.5041952797       -0.2941448369
 C        -9.7845117861        3.5310498895        0.6840718837
 O        -9.0939676095        2.7073025097        1.1917162564
 C       -11.2862829160        3.6739724047        1.2411587005
 C       -11.9851853919        2.3501246663        1.0104213177
 O       -11.9741111484        1.4997576900        1.9004775172
 C       -12.5831127016        1.9968044664       -0.3806243686
 C       -12.7351939999        0.5055733407       -0.6054450420
 C       -11.6405313625       -0.3396622340       -0.1178270565
 O       -10.4828069805        0.0609543280       -0.0558929707
 C       -11.8797250075       -1.9181425427        0.3011040215
 C       -10.9279822650       -2.1204574693        1.5134899809
 O       -11.1040337167       -1.4918439001        2.5381314870
 C        -9.8242232535       -3.2661272563        1.6367719922
 C        -9.2826352772       -3.2507495844        3.0594526243
 C        -8.6286560881       -1.8189898164        3.3254505283
 O        -8.4283917093       -1.0392770488        2.4047930830
 C        -8.4224679408       -1.4587740637        4.7999394290
 C        -9.8611489815       -0.6021164517        5.2362159948
 O       -10.0421582226        0.4472287415        4.6820545530
 C       -10.4842040840       -1.0709353216        6.5136148104
 C        -8.1675784980       -2.6400101941        5.8679421592
 C        -7.2284401686       -0.4057758795        4.9199432760
 C       -13.3698807715       -2.1983161248        0.6134211326
 C       -11.5690871244       -2.7024011738       -0.9809862920
 C       -11.2239489616        3.8765146984        2.7799997853
 C       -12.0586108405        4.8129093738        0.6502969938
 C        -5.7488067114        6.0443919929       -3.6539571226
 C        -4.7921672081        4.5419272162       -1.7734020718
 C        -9.4621252020       11.0572427486       -0.4311892004
 C        -8.5212849245        9.3122466078        1.2078001542
 C       -10.9266933744        5.5296235745       -5.6826040444
 C       -13.1318024135        6.5780725630       -6.1923695065
 H       -14.4989522257        4.1679992720       -3.2321120613
 H       -14.7547852699        4.8233989130       -4.7592615401
 H       -14.9100669666        5.9434629256       -3.4042955881
 H       -10.1810426061        6.5332823002       -3.0887846868
 H       -11.6959746828        7.0780775375       -2.2958261598
 H       -10.8407938070        9.4998650684       -2.4118376566
 H        -9.3467458912        8.8711217830       -3.0782743704
 H        -6.0542790346        8.9049978876        0.4193046541
 H        -5.5851007889       10.2001092738       -0.6270076765
 H        -4.3855548978        8.4746495388       -1.7794069342
 H        -5.7587699348        8.2748791131       -2.6526811010
 H        -7.1599724388        4.5936383885        0.1966875051
 H        -7.4848058181        3.2290453371       -0.8837489431
 H        -9.6465602382        4.4809644560       -1.3248527228
 H        -9.4432619735        5.4912687387        0.0734953888
 H       -11.9680451462        2.4030664935       -1.1644524453
 H       -13.6135225788        2.3990139096       -0.4321237894
 H       -12.9364698596        0.3570535952       -1.6986112210
 H       -13.7746645208        0.2808353673       -0.2570990186
 H        -9.0248300573       -3.0654929993        0.9383332616
 H       -10.2323066903       -4.2323513542        1.3265401565
 H        -8.4899999375       -3.9896101658        3.2280210314
 H       -10.0579628451       -3.6060408689        3.6920463736
 H       -11.4590474908       -0.5439863501        6.6738179217
 H        -9.8472968147       -0.8158085932        7.3213238309
 H       -10.6796701673       -2.1242849068        6.5424149829
 H        -9.0231077863       -3.3332449911        6.0382910844
 H        -7.9286275784       -2.1748374759        6.7932295913
 H        -7.3218307662       -3.1523654857        5.4897927091
 H        -7.3333730255        0.3105658721        4.1280412154
 H        -6.2860146364       -1.0283679175        4.9150829223
 H        -7.1341575060        0.0923227822        5.8530546909
 H       -13.9523819530       -2.0625735681       -0.3526227715
 H       -13.6788793072       -1.5122151928        1.3718634714
 H       -13.3998698598       -3.2069227526        1.0762540774
 H       -11.5748842099       -3.7840192731       -0.8791349183
 H       -10.5658284053       -2.4165307211       -1.4059391177
 H       -12.2814405460       -2.4605235181       -1.7655535458
 H       -11.4352590747        4.8969857672        3.1177689067
 H       -10.2901284593        3.5204337717        3.3321927608
 H       -12.0565347890        3.3503036715        3.2477630325
 H       -12.8495092006        5.0823110506        1.3143715582
 H       -12.5371565360        4.6564452556       -0.3283729266
 H       -11.4870273995        5.7442881001        0.5223739740
 H        -4.7982574377        6.5773607252       -3.8482688846
 H        -6.5476009243        6.7854306471       -3.7877182503
 H        -5.7050547662        5.1837587298       -4.4065369605
 H        -4.8631659334        3.6232463519       -2.3307829970
 H        -4.7999446559        4.3859952256       -0.7688202988
 H        -3.8163732643        4.9791360730       -2.0579760907
 H        -8.7856395914       11.7639109379       -0.0092143815
 H       -10.4503905276       11.1496076423        0.0741536490
 H        -9.5127609467       11.2853195811       -1.4757996689
 H        -9.3546940889        9.1133543398        1.8800032477
 H        -7.9705341178       10.1030483547        1.6807565708
 H        -7.8637388766        8.4100454880        1.0988468870
 H       -10.1444200101        5.2160604790       -4.9568229893
 H       -10.3854809243        6.1979150100       -6.3118070789
 H       -11.3151595533        4.6369871512       -6.1906446059
 H       -13.4988098831        5.7364398584       -6.6847113553
 H       -12.4963693987        7.2233287508       -6.8503575925
 H       -13.9042081422        7.1405471376       -5.6608304742
 Na       -9.9022723862        0.8594817681        2.3494407629
