117

 C       -14.1403565259        4.3672003745       -0.6586256107
 C       -13.3163609017        3.0689987993       -0.6977437214
 O       -12.5011383497        2.8548060197       -1.5981862600
 C       -13.6440852056        2.0071315631        0.3652406066
 C       -12.7178875776        0.7759016965        0.3996559314
 O       -12.4181840087        0.2811756469       -0.7123503443
 C       -12.0575139286        0.0988210535        1.5821453905
 C       -10.7335003212        0.8730322647        2.2952950444
 C        -9.6237634807       -0.1999665625        2.7459080918
 O        -9.6038614186       -0.7619066967        3.7837993458
 C        -8.4335883517       -0.5470435762        1.6993457002
 C        -8.9537305088       -0.6270201454        0.1860015949
 O        -9.2819428505        0.4785961617       -0.2173363597
 C        -9.3872287296       -1.8926889491       -0.6107883771
 C        -8.5450167025       -1.9714100252       -1.8700665173
 C        -9.1217948507       -1.1009023919       -3.0112679835
 O       -10.1718827097       -0.5714744909       -2.8969325803
 C        -8.4919452754       -0.9729597377       -4.4471619965
 C        -7.5403638950        0.2584363125       -4.2906613020
 O        -7.0262020420        0.6437369550       -3.2669562574
 C        -6.9515046543        0.9384076316       -5.6568145219
 C        -7.0053663413        2.4373062449       -5.4484697844
 C        -8.3075222492        2.8041434201       -4.6235977599
 O        -9.0612958539        2.0281773268       -4.0996252196
 C        -8.4676403350        4.2338417203       -4.0155746962
 C        -8.1991207130        4.0164905140       -2.5194397586
 O        -8.4753011330        3.0072544007       -1.9123224488
 C        -7.4219452449        5.2059084590       -1.7594774780
 C        -7.6985237773        5.0624673476       -0.1433472541
 C        -7.1437123970        6.1991999982        0.7028638974
 O        -6.6141290570        7.1768924992        0.2153025478
 C        -7.4193107396        6.3962982945        2.2838588168
 C        -8.8331775364        7.0022141018        2.4262270516
 O        -9.8416127693        6.6840323808        1.7652803247
 C        -9.1411984501        8.1672795210        3.3539008274
 C       -10.6395794212        8.4032455309        3.7869450884
 C       -10.9844138825        9.8906969801        3.8029927798
 O       -10.4671820239       10.6829157433        4.5639539165
 C       -12.3364107663       10.3540159955        2.9395904889
 C       -13.6021762620        9.4393167431        3.1622885466
 O       -13.4692015275        8.2566375782        3.2303001915
 C       -15.0781916317       10.0739369403        3.5306755231
 C       -12.6410271263       11.8759471566        3.1285484871
 C       -11.8289370232       10.2181374428        1.4481059663
 C        -7.3473924985        4.9855495482        2.9921974446
 C        -6.3938711617        7.2953500875        2.9690942108
 C        -7.6152875662        5.2368077379       -4.7578679839
 C        -9.9346596195        4.6120634700       -4.1684077414
 C        -7.7102380965       -2.2097669251       -5.0596430482
 C        -9.7141406371       -0.7458357136       -5.5183779661
 C        -7.3438916899        0.6495443720        1.6459295345
 C        -7.6786077290       -1.9279177322        2.0206235331
 C       -13.7302359680        2.5494368715        1.7728585949
 C       -14.9371269353        1.4747663506       -0.0989671363
 H       -15.1833860265        4.2314039662       -0.3608059884
 H       -13.9885114976        4.9440803855       -1.5806739892
 H       -13.7711693394        4.9934463586        0.2061631202
 H       -11.6733781029       -0.8741533783        1.3536321769
 H       -12.7668757709        0.0372944751        2.3296167128
 H       -10.8338178244        1.5620976662        3.1919407571
 H       -10.2062736116        1.5294856183        1.5625971071
 H       -10.4862826575       -1.9347501929       -0.7444270907
 H        -9.0827799163       -2.7780118925        0.0463522818
 H        -8.6608408601       -3.0302668049       -2.3493260965
 H        -7.5000882301       -1.6542213145       -1.5789403325
 H        -7.4761550795        0.5921481720       -6.5567744118
 H        -5.9704492392        0.5078454573       -5.5965502779
 H        -7.1758055827        2.9099092139       -6.3547445862
 H        -6.1868511610        2.8824756566       -4.9841005098
 H        -7.7640076512        6.1509361958       -2.1354315757
 H        -6.2844931400        5.0467044763       -2.0824333557
 H        -7.1462418666        4.1593131672        0.2418297789
 H        -8.6983904989        4.7847428527        0.1390041261
 H        -8.9113387466        8.9930437370        2.6981890243
 H        -8.5579221397        8.2559167064        4.3088636058
 H       -10.7795909848        7.9613008515        4.8233314754
 H       -11.2774429038        7.8146752614        3.1942089649
 H       -15.5329152130        9.2908727456        4.0654081114
 H       -15.5073402061       10.3236924352        2.5486234249
 H       -14.8513191127       10.8603648973        4.2133848519
 H       -13.2040352359       12.0988203826        2.2470937357
 H       -11.7121711388       12.4180565587        3.1314012886
 H       -13.1870972317       11.9193367746        4.0077242620
 H       -11.5645505539        9.1895406014        1.3249925136
 H       -10.9632030475       10.8084780699        1.2626255199
 H       -12.5208168128       10.4581192132        0.7457681882
 H        -7.7462963227        5.1115491106        4.0501116616
 H        -6.3245915577        4.7093686591        3.2369535256
 H        -7.9658250577        4.1065064920        2.4691103268
 H        -6.5663686397        7.3871492305        4.0417009999
 H        -6.5505744280        8.2499227396        2.4290337296
 H        -5.3771157716        7.0250952008        2.7435501894
 H        -7.5445689532        4.9321320255       -5.7721492449
 H        -6.5606996241        5.2176798946       -4.4123907004
 H        -7.9701791173        6.2884563696       -4.5237133181
 H       -10.1017355701        5.5723412689       -3.7332567462
 H       -10.6773579214        3.9142027599       -3.7672224068
 H       -10.1089417622        4.7780091324       -5.2171232714
 H        -6.8856477360       -2.6864887104       -4.4925916773
 H        -7.1754277608       -1.9393341889       -6.0444202532
 H        -8.4624224610       -3.0694326566       -5.1169114065
 H        -9.5092479115        0.2765121761       -5.9049332861
 H       -10.6593003944       -0.8020324507       -4.9729252962
 H        -9.5869892308       -1.4059115916       -6.3879521515
 H        -6.5616520637        0.3299336337        0.9833648622
 H        -6.8720047291        0.7882465279        2.6350720367
 H        -7.7808234793        1.6723879367        1.3420681694
 H        -6.9146544763       -1.7104586872        2.7276514360
 H        -7.2985140045       -2.1591293492        1.0697305827
 H        -8.3672271724       -2.7108430039        2.4847033793
 H       -13.0122633048        3.3517996631        2.0987630668
 H       -13.5097154324        1.7793059976        2.4692139545
 H       -14.7355690684        2.8015888063        2.0308133596
 H       -15.1999291044        1.4756656672       -1.1542335438
 H       -15.7344576057        1.9026232981        0.5012988608
 H       -14.9551766359        0.4143555718        0.0914618751
 Na      -10.3167847615        1.5209976289       -1.9529180991
