117

 C       -14.1784951275        5.6227992183       -3.3117723367
 C       -12.9059458300        4.8875386034       -3.5946439136
 O       -12.6433410792        3.9051200941       -2.9552713166
 C       -11.8308474686        5.4635222460       -4.6250338601
 C       -11.4949895984        6.8685655201       -4.0037653577
 O       -12.0755085626        7.8722149720       -4.4573685413
 C       -10.3780330651        6.9906941576       -2.9157923360
 C       -10.2517208299        8.4374493582       -2.4982169888
 C        -9.6195588620        8.4902497019       -1.0786287282
 O        -9.9931741543        7.6270693921       -0.2471114795
 C        -8.6032678035        9.6010050143       -0.7315950862
 C        -7.4272713979        9.6699533381       -1.8362054661
 O        -7.7781342942       10.0530286171       -2.9206766544
 C        -5.9478652293        9.4529712587       -1.4450784837
 C        -5.2792654411        8.1318513973       -1.8547797500
 C        -5.7905875766        6.8555872953       -1.1515364134
 O        -6.0883068480        6.7292972552        0.0161619279
 C        -5.5844930721        5.4830233331       -2.0045014218
 C        -6.9796476914        4.7992254202       -1.9710394607
 O        -7.7697900369        4.7562154075       -2.9429749778
 C        -7.4826687765        4.1943502738       -0.5887634739
 C        -8.8465737715        4.7062349212       -0.1420130403
 C        -9.6033847585        3.6823468775        0.7223825922
 O        -9.1259407642        2.5812790536        0.9252589100
 C       -11.0581120797        3.9233994937        1.1287398201
 C       -11.9001807521        2.5731818491        0.8725773428
 O       -12.4207190100        1.9773430725        1.8245239120
 C       -12.0830824934        2.1445679533       -0.6415054476
 C       -12.7522802400        0.7808859460       -0.6675361230
 C       -11.8006557188       -0.1882866017        0.0236506541
 O       -10.6079320819        0.0145470875        0.1514552765
 C       -12.3432836056       -1.5750780601        0.4717885128
 C       -11.6759973613       -1.9166520436        1.8590445555
 O       -11.5027406860       -0.9849428751        2.6126805647
 C       -10.9417276181       -3.2575842567        2.1229665552
 C        -9.9883128183       -3.0989442763        3.2592553889
 C        -9.1870314706       -1.6888602221        3.2912907950
 O        -8.8558946928       -1.2012007511        2.2463369745
 C        -8.5541854632       -1.1237992594        4.7300416757
 C        -9.4318758797       -0.0347306791        5.2686864974
 O        -9.6804290638        0.9354331367        4.5177663798
 C        -9.8535546326        0.0942571641        6.6894170222
 C        -8.5109214094       -2.3657103675        5.6995667130
 C        -7.1451765129       -0.5434523315        4.3730604857
 C       -13.8881360727       -1.6817344788        0.7404596187
 C       -11.9893090064       -2.5247636529       -0.6450293830
 C       -11.1062897529        4.1514501493        2.6269359819
 C       -11.8378775081        5.0835271488        0.3629485435
 C        -5.2855708599        5.6236738641       -3.5212229932
 C        -4.5049426973        4.6512783626       -1.2610457549
 C        -9.2051369346       11.0563805351       -0.6973103050
 C        -8.0240779064        9.2286224792        0.6856372736
 C       -10.6212241432        4.5430913910       -4.7204920419
 C       -12.4906012580        5.6646097615       -6.0447805068
 H       -14.9753191157        4.9171023200       -2.9889848641
 H       -14.5164030251        6.2570817440       -4.0983878137
 H       -14.1415486090        6.2824545638       -2.4203341459
 H        -9.3817718662        6.5670003064       -3.1612050469
 H       -10.6438064669        6.3753621166       -2.0229628110
 H       -11.1740173311        8.9953068953       -2.5736151242
 H        -9.5186179473        8.9997327741       -3.0673447007
 H        -5.9424482547        9.5306847612       -0.3314324900
 H        -5.3732026012       10.2139215866       -1.9980243296
 H        -4.1752580585        8.0475881701       -1.4555903119
 H        -5.3700729960        8.0442239147       -2.9121780375
 H        -6.6650781290        4.3985391716        0.1776362354
 H        -7.4421143456        3.0792503061       -0.8004745696
 H        -9.4335153702        4.8675411098       -1.1059804820
 H        -8.6540098718        5.6638842638        0.2646259918
 H       -11.1372188306        2.0985115614       -1.1792372116
 H       -12.6758885975        2.8811167509       -1.1698863293
 H       -12.9386208850        0.4108233270       -1.7093505706
 H       -13.6689484111        0.9164115085       -0.1374490897
 H       -10.5097945613       -3.6301070480        1.1914261491
 H       -11.6538710821       -4.0285521044        2.4044263394
 H        -9.1500340682       -3.7766871589        3.0806150894
 H       -10.4950020017       -3.2656769234        4.1534953995
 H       -10.2799221523        1.0742843624        6.7413422137
 H        -9.0986603760        0.1025421538        7.3960540660
 H       -10.6225520571       -0.6523624669        6.9210817445
 H        -9.5075501320       -2.7643833182        6.0427288885
 H        -7.9605090993       -2.2372396887        6.5982392126
 H        -8.0433091048       -3.1957260517        5.2333311837
 H        -7.2135175683        0.2990531020        3.7941092099
 H        -6.6472633496       -1.2700814678        3.7217410261
 H        -6.6645241754       -0.2675291781        5.2999655523
 H       -14.3738339032       -1.2039665868       -0.1426590266
 H       -14.1561707977       -1.0884519698        1.6114100043
 H       -14.1754189840       -2.7415642205        0.9036387024
 H       -12.0101655290       -3.5497787950       -0.3612109057
 H       -11.0074736497       -2.3986413108       -1.2289655005
 H       -12.7052644825       -2.4408758032       -1.4451239138
 H       -10.8408042980        5.2010244564        2.8203966001
 H       -10.3984304183        3.4270284020        3.1510209680
 H       -12.1136381565        3.8919021866        2.9940664935
 H       -12.6297695282        5.3965411256        1.0157394022
 H       -12.2655965835        4.7510016233       -0.6163122214
 H       -11.1109865587        5.8900084779        0.2650549048
 H        -4.3946361208        6.2232595901       -3.7703079932
 H        -6.0814672328        6.0789496693       -4.1421458367
 H        -5.0784956972        4.5682063559       -3.9296749988
 H        -4.0953970225        3.8873200270       -1.9609128399
 H        -4.9014179491        4.0796839183       -0.3461276227
 H        -3.7512666860        5.2818581425       -0.8209011963
 H        -8.4273529508       11.6854996524       -0.3180367134
 H       -10.1504314319       11.2161340688       -0.0999445744
 H        -9.3364615853       11.3490363518       -1.7086216441
 H        -8.8460127295        9.1206645227        1.4067696957
 H        -7.4136286693       10.0242975704        1.0848360493
 H        -7.5309230676        8.2068864929        0.6872556798
 H       -10.1101073237        4.4512059306       -3.7576018854
 H       -10.0242729960        4.8132203145       -5.5474037334
 H       -10.8323819549        3.5295814281       -5.0060270343
 H       -12.9259531531        4.6231759804       -6.3456711925
 H       -11.7312333313        5.9625125043       -6.7665363222
 H       -13.2420784107        6.4630387985       -6.0188819386
 Na      -10.1520468959        0.8588971914        2.2296834821
