117

 C       -14.1793326669        5.7188428309       -3.4992802778
 C       -12.9668312408        4.9149559915       -3.5098347215
 O       -12.8045335167        3.8403431074       -2.8942462302
 C       -11.7934542753        5.4044646676       -4.4764437183
 C       -11.4944513823        6.9161004369       -4.0308621764
 O       -12.1913127177        7.7818778507       -4.4431838273
 C       -10.2949877444        7.1562068643       -3.0742173333
 C       -10.2919654611        8.5473589780       -2.4673355139
 C        -9.5610707073        8.5233336185       -1.0737652945
 O        -9.8235564178        7.7080396629       -0.2648702531
 C        -8.5502432417        9.7205551277       -0.7849213807
 C        -7.3926921809        9.6518796934       -1.8335286018
 O        -7.6455660856        9.7775401693       -3.0087654097
 C        -5.8448357456        9.3789839797       -1.4112238991
 C        -5.3044215269        8.1373393737       -2.0845802478
 C        -5.7570362787        6.8487465541       -1.2990970062
 O        -6.3010584069        6.8937260772       -0.2328424245
 C        -5.4145933747        5.3935100836       -1.9281033538
 C        -6.9125947690        4.7418915906       -1.9371912152
 O        -7.6741936521        4.7523277798       -2.8618358534
 C        -7.4463398161        4.0863623278       -0.6350227495
 C        -8.9136676776        4.5286877613       -0.3303963684
 C        -9.5924441741        3.5895345474        0.5811457845
 O        -9.0501530779        2.5617649896        0.9902752044
 C       -11.0614049618        3.9442443982        1.0647166478
 C       -11.9486583937        2.6112982584        0.8063086322
 O       -12.3233146453        1.9888339783        1.7713271083
 C       -12.2189845667        2.1723440104       -0.6174968591
 C       -12.8294788288        0.7586723920       -0.7543147217
 C       -11.9068007614       -0.2656514377       -0.0343181267
 O       -10.7356787823       -0.0321095408        0.1401588737
 C       -12.4589878853       -1.6678464066        0.4774049071
 C       -11.7141561461       -1.8797482030        1.8826225617
 O       -11.8956730680       -1.0472193557        2.7573870188
 C       -10.9412643552       -3.2238757784        2.1436231005
 C        -9.9148485359       -2.9999355017        3.3335422564
 C        -9.2590846371       -1.6611527699        3.3281524907
 O        -9.0326570779       -1.1198619071        2.2511250105
 C        -8.6963844245       -1.1848840685        4.6916812319
 C        -9.3713920808        0.0887970660        5.1985079036
 O        -9.7626474069        1.0154056268        4.5630123989
 C        -9.5361524304        0.1579545472        6.6557099926
 C        -8.5433092412       -2.2587788640        5.7551469934
 C        -7.1637104511       -0.6916305701        4.4183434455
 C       -13.9228468433       -1.6980314599        0.8602949332
 C       -12.1418411361       -2.7416583193       -0.5630737554
 C       -10.8871783673        4.2552291137        2.5891877751
 C       -11.6649889163        5.1800266113        0.3630469620
 C        -4.9347317709        5.5492688578       -3.4039680776
 C        -4.3907011555        4.5643505661       -1.1248926298
 C        -9.2397877338       11.1242273061       -0.9104091377
 C        -8.0615701229        9.5369613256        0.6857190123
 C       -10.5482961761        4.5256438809       -4.3947210241
 C       -12.4586971091        5.3598848739       -5.9089173014
 H       -15.0145286839        5.1084723527       -3.8402326815
 H       -14.2038772101        6.7068949448       -3.9851017793
 H       -14.4471554947        5.9530373951       -2.4616279299
 H        -9.4151469938        6.9616063231       -3.6937780095
 H       -10.2506893393        6.3752471880       -2.3310759455
 H       -11.3268939130        8.8045358341       -2.1259781478
 H       -10.0144793192        9.3628846800       -3.1731132268
 H        -5.7858407913        9.1619016204       -0.3661554344
 H        -5.1276759441       10.1516519649       -1.6293262501
 H        -4.2697483501        8.1391614519       -2.0927783972
 H        -5.7624678730        8.0648960335       -3.1002705680
 H        -6.6914855647        4.3070962689        0.0652849012
 H        -7.4209061429        3.0454895945       -0.7914704520
 H        -9.3149447430        4.6262303290       -1.3331526897
 H        -8.9625710165        5.5550986040        0.1847652140
 H       -11.3604237078        2.2296934364       -1.3041112908
 H       -12.8748202110        2.9814798376       -0.9926773907
 H       -13.0845813068        0.5911027223       -1.7853058847
 H       -13.7835731323        0.7850688881       -0.0742336189
 H       -10.4076034224       -3.4805935039        1.2028488417
 H       -11.6410239648       -4.0492283379        2.3675793337
 H        -9.0366981093       -3.6981489005        3.3751036567
 H       -10.5095114642       -3.0204873462        4.3239802492
 H        -9.5731987855        1.2414046511        6.9912929506
 H        -8.6472251728       -0.2908954529        7.1529287588
 H       -10.3677662865       -0.4321334534        6.9259127598
 H        -9.4312297081       -2.5066649520        6.2860892850
 H        -7.8778502546       -2.0549468443        6.6121708571
 H        -8.1665095507       -3.2085942129        5.3108097271
 H        -7.1878273359        0.1426136297        3.6277140682
 H        -6.6391904963       -1.5733385463        4.0050372070
 H        -6.6746465155       -0.2806044930        5.2814378240
 H       -14.4782428274       -1.5146300543       -0.0244131361
 H       -14.2136161174       -0.9880013321        1.6096327714
 H       -14.1006131044       -2.6890949302        1.2496615356
 H       -12.7389201110       -3.6933528752       -0.5471015074
 H       -11.1526194796       -3.0372767411       -0.5557137715
 H       -12.1985157843       -2.3504159889       -1.5926021026
 H        -9.9257733300        4.7697236449        2.6843845990
 H       -10.8729362942        3.3267319094        3.1153061769
 H       -11.6895660913        4.8447642172        3.0167197172
 H       -12.7634879999        5.1226030018        0.3924221245
 H       -11.3482161000        5.1453834698       -0.6486947375
 H       -11.2687216251        6.0809821614        0.8560153040
 H        -4.0081292960        6.0671239815       -3.5213577504
 H        -5.6231614537        6.0780574625       -4.0013184945
 H        -4.7468049558        4.6106751409       -3.8173699054
 H        -4.5967096683        3.4732642391       -1.2284070399
 H        -4.3846731706        4.8147218388       -0.1115042240
 H        -3.3137089075        4.8157880369       -1.4509839284
 H        -8.6013670065       12.0149124976       -0.8539738294
 H        -9.9166144894       11.1400192396       -0.1176346435
 H        -9.8266382547       11.1602369656       -1.8523715375
 H        -8.8878523653        9.5828937666        1.4243445482
 H        -7.4315229343       10.3987324230        1.0266786205
 H        -7.6357972460        8.5593705337        0.7705029807
 H       -10.4287133622        4.0871996862       -3.4485113103
 H        -9.6460731706        4.8885965340       -4.8587458126
 H       -10.7374300244        3.6225573306       -4.9837348312
 H       -12.6551249151        4.3826763536       -6.0662421164
 H       -11.6514499951        5.6348000232       -6.6141504909
 H       -13.3590470282        5.9633361984       -6.0870134653
 Na      -10.2393085896        0.9651143569        2.3120289787
