117

 C       -14.1260119635        5.6016854670       -3.3314411221
 C       -12.7782333316        4.9270447105       -3.7264892427
 O       -12.4715503209        3.9273893280       -3.0496272371
 C       -11.8782711213        5.5770754800       -4.7694538601
 C       -11.4591466542        6.9940195302       -4.1238812723
 O       -12.0386677901        7.9725254163       -4.4891664769
 C       -10.6047866716        6.9483592859       -2.8968167339
 C       -10.1055490456        8.3522888183       -2.5657604556
 C        -9.5807006608        8.4314392349       -1.0696510092
 O       -10.0084340738        7.6636869833       -0.2380523345
 C        -8.5381639020        9.4925496138       -0.6232374748
 C        -7.3798421843        9.6848793972       -1.6243929601
 O        -7.6724468238        9.9660931697       -2.7934627087
 C        -5.9149646147        9.4883571538       -1.2017128250
 C        -5.3764033331        8.2213900651       -1.9640542059
 C        -5.7878252193        6.8356936753       -1.1949363862
 O        -5.9520494888        6.8254795370        0.0084894158
 C        -5.7041775766        5.5756114494       -2.0394151881
 C        -7.1521826926        4.8076911672       -1.8432374376
 O        -7.8892821858        4.8200673522       -2.7632392461
 C        -7.5704934017        4.2568256958       -0.4824528946
 C        -9.0414293367        4.7135880581       -0.1538659006
 C        -9.7108386397        3.7202366424        0.7540960018
 O        -9.1385476187        2.6822645963        1.0963223176
 C       -11.2122998107        3.9707550885        1.1888437219
 C       -12.0342275384        2.5975456238        0.8902589572
 O       -12.3244675957        1.8464679055        1.8064397565
 C       -12.2311845528        2.3381048983       -0.5839404720
 C       -12.7568610673        0.8651739395       -0.7373235050
 C       -11.7804740157       -0.1932873767       -0.1019380032
 O       -10.5724456438        0.0010523302       -0.1128891905
 C       -12.2445070866       -1.6345031222        0.4377740650
 C       -11.5387500074       -1.9237091572        1.8123024493
 O       -11.6316944265       -1.0989203552        2.7049227122
 C       -10.7157438881       -3.2033194001        2.0400792381
 C        -9.9151183228       -3.1958209419        3.3874617951
 C        -8.9916446648       -1.9313613782        3.3861392084
 O        -8.7468271401       -1.3387570787        2.3583275390
 C        -8.4819057480       -1.2151095584        4.7830323503
 C        -9.5672891699       -0.1463576457        5.0999668779
 O        -9.7339437735        0.8650657088        4.4763512804
 C       -10.0788760235       -0.1635057234        6.5346710565
 C        -8.2961458649       -2.3363851341        5.8403690979
 C        -7.1394900547       -0.5991843350        4.4244924920
 C       -13.7429841575       -1.6188883567        0.6545871828
 C       -11.8964287850       -2.6880622281       -0.6821274556
 C       -11.1377668660        4.2620354809        2.7219291492
 C       -11.8298505515        5.1950977856        0.4501786500
 C        -5.4477953837        5.8092454431       -3.5282156219
 C        -4.5360468992        4.6328978633       -1.5290748499
 C        -9.4012024064       10.7975760249       -0.4724657478
 C        -8.0523942211        9.1126944254        0.8285245516
 C       -10.7521704679        4.5680327302       -5.0317515330
 C       -12.6567900336        5.8477722490       -6.1127660386
 H       -14.6765944929        5.1491394297       -2.5022065751
 H       -14.7239496873        5.8098745729       -4.2483143956
 H       -14.0308348009        6.5882682034       -2.9077744675
 H        -9.6933197358        6.3813086571       -3.1105933172
 H       -10.9848983241        6.4175845813       -2.0218208463
 H       -10.9504868535        9.0521549180       -2.5064502578
 H        -9.3483974882        8.8209734523       -3.2101898369
 H        -5.8023230901        9.2560867290       -0.1472833581
 H        -5.4097441782       10.3881298520       -1.5964400693
 H        -4.3467836146        8.1323110563       -1.8826636784
 H        -5.7556864901        8.2458885676       -3.0471873148
 H        -6.8979377333        4.5206830019        0.2909881235
 H        -7.5546999211        3.1797587275       -0.5684950682
 H        -9.6988433605        4.7002323150       -0.9952091119
 H        -8.9293471844        5.7731900317        0.1964591927
 H       -11.1836211878        2.3875189892       -0.9399385678
 H       -12.7647373266        3.0931997875       -1.2032539324
 H       -12.9094263244        0.5567982415       -1.7985840792
 H       -13.7586325293        0.9517222990       -0.2737268358
 H        -9.9849803078       -3.1855927517        1.2269074914
 H       -11.2748543144       -4.1303278115        1.8201809848
 H        -9.3695265481       -4.1242751622        3.5330705535
 H       -10.5710488565       -2.8527167026        4.2403320021
 H       -10.8098043490        0.6144958978        6.7760632377
 H        -9.1211002983        0.1883424186        7.0850371326
 H       -10.4061926710       -1.1536599834        6.9136581135
 H        -9.1324210250       -2.9779552449        5.9957215065
 H        -7.9518472337       -1.9056429703        6.8112827060
 H        -7.4616554209       -3.0359728819        5.6178642558
 H        -7.2550037973        0.0306317645        3.4775209872
 H        -6.4937221587       -1.3565916497        4.0579220403
 H        -6.8036647936       -0.0016524228        5.2967805092
 H       -14.3008964365       -1.5571904865       -0.2610299554
 H       -13.9664744402       -0.7369936030        1.3021201140
 H       -13.9658190133       -2.5212927696        1.1908041821
 H       -12.0550220306       -3.7332905901       -0.3982294096
 H       -10.8997409695       -2.6868339908       -0.9704405244
 H       -12.4405142991       -2.5507030983       -1.6151635333
 H       -11.2364982482        5.3312189813        2.8413898957
 H       -10.2414440829        3.9483922267        3.1526520580
 H       -11.9269967952        3.7284481651        3.2506728339
 H       -12.9031351746        5.2094896951        0.7197294430
 H       -11.7979800657        5.0514696799       -0.6117450670
 H       -11.3593427529        6.1169602013        0.7407707669
 H        -4.4560268167        6.2528693912       -3.7337597675
 H        -6.1583276559        6.5281033593       -3.9722155481
 H        -5.6079620353        4.9336888114       -4.0906201508
 H        -4.3187871939        3.9821571889       -2.2836368430
 H        -4.8572471844        4.0492480053       -0.6904597238
 H        -3.6978656114        5.1861586029       -1.2227673291
 H        -8.8101628636       11.6019569154        0.0236353247
 H       -10.2524078695       10.5568440329        0.1240718992
 H        -9.7411479194       11.1674867254       -1.4645191059
 H        -8.8645772484        8.9376732798        1.5207429302
 H        -7.3926463457        9.9391857838        1.1175871404
 H        -7.4643195254        8.2527465828        0.8558323113
 H       -10.1834373553        4.4401006556       -4.1098003530
 H       -10.0925554834        4.8734312768       -5.9064712021
 H       -11.0039099434        3.5605353972       -5.3863616759
 H       -13.1641020430        4.9714200989       -6.4815126208
 H       -11.9327428793        6.2168349230       -6.8147304001
 H       -13.2536804095        6.7185945617       -5.9226861360
 Na       -9.9147359772        0.9212410918        2.1451591691
