117

 C       -14.5696415629        5.5573601317       -4.5385728204
 C       -13.2859319373        5.0994059606       -3.8828522099
 O       -13.2657526098        4.4939867302       -2.8298965820
 C       -11.9169390844        5.4190751763       -4.5844473839
 C       -11.6054757533        6.8808895594       -4.0465733698
 O       -12.3986329406        7.7850000049       -4.2991881613
 C       -10.3436141952        7.1194227461       -3.0376014742
 C       -10.2393112260        8.4732314964       -2.4214849721
 C        -9.3426452337        8.6443683225       -1.2667411031
 O        -9.3427390762        7.8550410907       -0.3389243131
 C        -8.3945660102        9.9169793381       -1.2825713921
 C        -7.2317494448        9.4939091545       -2.2489528643
 O        -7.4693769682        9.3314538441       -3.4372555278
 C        -5.7662311020        9.3080613375       -1.7204472969
 C        -5.1636902900        7.9262090397       -2.1166094153
 C        -5.5623527618        6.8448451258       -1.1928174526
 O        -6.0963863913        6.9304676206       -0.0967934816
 C        -5.1941631272        5.3075989087       -1.7365918751
 C        -6.5524679687        4.4839311206       -1.8162205956
 O        -7.1001284742        4.2526324775       -2.9194248685
 C        -7.2388818917        4.0931069527       -0.5270022996
 C        -8.7546104939        4.2067591738       -0.6309170310
 C        -9.5931814886        3.4354519796        0.3870088114
 O        -9.0717372248        2.4436292535        0.8452114910
 C       -11.1197503895        3.9144027962        0.7753745782
 C       -12.0601955725        2.6744962282        0.9388288979
 O       -12.1330506165        2.1070781265        2.0098504861
 C       -12.8567332106        2.1495799257       -0.2467706920
 C       -13.4608639436        0.7569011215       -0.0202486735
 C       -12.4562748421       -0.2705597191        0.2695411848
 O       -11.2803895283       -0.0278751194        0.2188077327
 C       -12.9163559281       -1.6838173626        0.7406004302
 C       -12.1430303464       -1.7729751230        2.1426250968
 O       -12.4372211192       -0.9116059262        3.0061504904
 C       -11.0002259975       -2.8060278599        2.2314208253
 C       -10.3092225230       -2.5756756366        3.5285726497
 C        -9.0122361674       -1.7594747947        3.5491205525
 O        -8.6744494731       -1.1652213916        2.5007992793
 C        -8.4749527700       -1.2605921290        4.9362743118
 C        -9.1327280459        0.0704346614        5.3586031911
 O        -9.8172274327        0.8069463350        4.6494511577
 C        -8.8228679741        0.5603789187        6.7558281400
 C        -8.6319296022       -2.2837082970        6.0049146963
 C        -6.9201937375       -0.9946666383        4.7782308231
 C       -14.4176397346       -1.8530426724        0.9897282649
 C       -12.4356114249       -2.7604310099       -0.2122517177
 C       -10.9210137083        4.6023263643        2.1768434582
 C       -11.5659363764        5.0413570503       -0.1918607734
 C        -4.5222423827        5.2740598404       -3.1129643856
 C        -4.2511338584        4.7693866243       -0.6657234598
 C        -8.9685433261       11.2372258336       -1.8951993606
 C        -7.8667917331       10.2755808482        0.1525422838
 C       -10.8106352043        4.3989492019       -4.1154679432
 C       -12.0523179018        5.5386975820       -6.0926329335
 H       -14.6043428670        6.6204928483       -4.4314406385
 H       -15.5210754014        5.1777846389       -4.2411122360
 H       -14.6043214684        5.2155916827       -5.6065090202
 H        -9.4944132407        6.8083449873       -3.6597499477
 H       -10.5218627001        6.3433061764       -2.3130397983
 H       -11.2308740898        8.7768330723       -2.0358740666
 H       -10.0690823911        9.1366687557       -3.2821195632
 H        -5.7123516467        9.2477523418       -0.6482749544
 H        -5.0975499097       10.1420447440       -1.8388471848
 H        -4.0571598318        7.9781832471       -2.2081262184
 H        -5.5104510913        7.6382008141       -3.1646857962
 H        -6.8318576892        4.7531885487        0.2840666597
 H        -7.0410561546        3.0384891759       -0.2567629761
 H        -9.0750700034        3.8382947549       -1.6103581272
 H        -9.0347701882        5.3296028814       -0.6143399675
 H       -12.3473030582        2.0498490333       -1.2127982852
 H       -13.6065397276        2.8802745785       -0.4589486153
 H       -14.0508429648        0.5139672315       -0.9388088458
 H       -14.1472639479        0.6263748086        0.9190508371
 H       -10.3093437541       -2.7140307026        1.3878592771
 H       -11.4408755024       -3.7716418315        2.2221703846
 H       -10.0784099572       -3.4544425388        4.1069227451
 H       -10.9152686043       -2.0766696962        4.2870495603
 H        -9.1762290072        1.5405314165        6.9183860952
 H        -7.7933683450        0.4306918915        6.8493328588
 H        -9.2828272362       -0.0937094761        7.5051237056
 H        -9.6845115313       -2.5088387531        6.0082001703
 H        -8.3286048319       -2.0923288905        7.0119495858
 H        -8.2447392997       -3.2774900787        5.7852249917
 H        -6.7352491884       -0.3132152029        3.9905344543
 H        -6.2944264419       -1.9251184016        4.6365341317
 H        -6.4932003877       -0.6182539470        5.6752175598
 H       -15.0086231231       -1.9793720923        0.0578333273
 H       -14.8180694129       -1.0359512452        1.5255506269
 H       -14.6496437063       -2.8297604425        1.5462421345
 H       -12.5034911867       -3.7598505979        0.2235632095
 H       -11.3508909840       -2.5963177374       -0.4381381890
 H       -13.0412459596       -2.7460833315       -1.0894891985
 H        -9.9660114648        5.1281406850        2.1796177674
 H       -10.9397833537        3.8556504370        3.0023876885
 H       -11.6423957161        5.3583068262        2.2082784176
 H       -12.3771132518        5.5698556804        0.2762657284
 H       -11.8559867061        4.5881313813       -1.1265405476
 H       -10.7347919433        5.7758403509       -0.3358078325
 H        -3.5093720142        5.7187572870       -3.1045810494
 H        -5.0813744806        5.6624797834       -3.9669506849
 H        -4.4580037515        4.1556203077       -3.3517362901
 H        -3.7266872357        3.8519809156       -1.0297603472
 H        -4.8109203910        4.3930608328        0.2904778255
 H        -3.5277074967        5.5078629637       -0.3947436253
 H        -8.2445265009       12.0482826421       -2.0556331864
 H        -9.7695851451       11.6030349637       -1.2759871069
 H        -9.4221490580       11.0240748863       -2.8942470470
 H        -8.6582790576       10.5483148005        0.7842854124
 H        -7.0787789973       10.9656331456        0.0553947531
 H        -7.3524790321        9.4327691701        0.6115742801
 H       -10.7984298576        4.2934397601       -3.0100740070
 H        -9.7914432067        4.6221672447       -4.2332464436
 H       -11.1405413719        3.4397606858       -4.6075787890
 H       -12.4657796337        4.5795698784       -6.5488832454
 H       -11.0151686008        5.6633648412       -6.5268978236
 H       -12.6685077271        6.3749448080       -6.4443278595
 Na      -10.1468782374        0.6768560002        2.3983793563
