117

 C       -14.6380104427        5.1837440636       -5.0393591090
 C       -13.3934455818        5.0187191242       -4.2030515570
 O       -13.4169743891        4.5651764460       -3.0840461969
 C       -12.0475313433        5.6034495638       -4.8121710767
 C       -11.7241192329        6.9931627154       -4.1888966252
 O       -12.4406631575        7.9210055930       -4.4480622020
 C       -10.7013083937        7.0646355736       -3.0982319220
 C       -10.0150357192        8.4386946512       -2.9962430857
 C        -9.2752970075        8.6695019675       -1.5927086869
 O        -9.5558870102        7.9612421225       -0.6098071845
 C        -8.2717280542        9.8906148770       -1.5364781935
 C        -7.0674195724        9.3076709549       -2.4008374302
 O        -7.2273040803        9.1789362311       -3.5932811639
 C        -5.6895669174        8.9733399098       -1.7799381433
 C        -5.1631562493        7.5908241054       -2.1228161059
 C        -5.3911917161        6.4995071599       -1.1192540143
 O        -5.8075119586        6.7938719138       -0.0118923025
 C        -5.1279899778        5.0780153179       -1.5120913078
 C        -6.5006566428        4.3776016563       -1.5417464556
 O        -6.9971783648        4.0520242891       -2.5552015631
 C        -7.2434681689        4.2509448585       -0.1415909468
 C        -8.7819967394        4.3884859346       -0.3394083201
 C        -9.6369096462        3.4269386676        0.4527231455
 O        -9.2095305011        2.2997259718        0.7292814494
 C       -11.0627814593        4.0170031174        0.9186525802
 C       -12.0753151039        2.8144293917        1.0344894602
 O       -12.0603042847        2.2095316836        2.1096033146
 C       -13.0583931219        2.4439718845       -0.0003005769
 C       -13.7278370664        1.1015811753        0.3618997195
 C       -12.6087424376       -0.0856886661        0.3683310034
 O       -11.5223943419        0.1658383173       -0.1206874344
 C       -12.8852728765       -1.5274666953        1.0127862649
 C       -11.9757422209       -1.6565490482        2.2960941076
 O       -12.0268888682       -0.7587943090        3.0913662746
 C       -11.1478450967       -2.9922556675        2.5191445267
 C       -10.2414911232       -2.9910117351        3.8263400740
 C        -9.2597638402       -1.7300900317        3.7744575983
 O        -9.0643281752       -1.2337606907        2.7031633269
 C        -8.4521958517       -1.3156443405        4.9688817323
 C        -8.8876431408        0.2490589113        5.3510784911
 O        -9.1102235249        1.0183217854        4.4634578528
 C        -8.8238244703        0.7196029940        6.8778732137
 C        -8.6432836546       -2.1969596724        6.2375951773
 C        -6.9931607268       -1.1106721517        4.6520611167
 C       -14.3739463316       -1.6890849938        1.4507780575
 C       -12.4781540173       -2.5823545390       -0.0842221986
 C       -10.8423426619        4.7361919547        2.3315497236
 C       -11.6576378716        5.0261764976       -0.1999759203
 C        -4.4698173452        4.8903840107       -2.9158909707
 C        -4.2559914162        4.4869820564       -0.4024059112
 C        -8.8390399346       11.1412005502       -2.2703150826
 C        -7.9071528573       10.1257645026       -0.0706284233
 C       -10.9910332012        4.5563025590       -4.4829763675
 C       -12.1374733807        5.8051603915       -6.3814260609
 H       -15.1412711115        6.1849086918       -4.9654591640
 H       -15.4209839394        4.4746428312       -4.6625078569
 H       -14.4699863274        4.9745880913       -6.0664352407
 H        -9.9027010753        6.3255262853       -3.1834273157
 H       -11.2477619997        6.9449609932       -2.1706209129
 H       -10.6676613764        9.3258765707       -3.1269759951
 H        -9.1744611519        8.4330820278       -3.6875203935
 H        -5.4964112819        9.1626320952       -0.7283401293
 H        -5.0678808360        9.6918431791       -2.2665637650
 H        -4.0686614121        7.6935138905       -2.4440057019
 H        -5.5821380259        7.5019489019       -3.0908755638
 H        -6.9630448151        5.0736870073        0.5237849328
 H        -6.9625376424        3.2781107786        0.3271586648
 H        -8.9539304154        4.2995699279       -1.4618978315
 H        -9.0738738843        5.3910449319       -0.0724959810
 H       -12.5698216504        2.3514473985       -0.9868878164
 H       -13.8091633951        3.2143373595       -0.0758044965
 H       -14.4853447948        0.7087815494       -0.4608933263
 H       -14.2840869095        1.1655678800        1.2747046888
 H       -10.6591212472       -3.2247268969        1.5841076884
 H       -11.8489503176       -3.7721228971        2.7261539078
 H        -9.6131570860       -3.8951156692        4.0074790349
 H       -10.8855967310       -2.9661099925        4.7028034822
 H        -8.8205561517        1.7928747615        6.8871495902
 H        -7.9490402348        0.3313551763        7.3459541847
 H        -9.7241031535        0.4604630277        7.3774468269
 H        -9.6797969934       -2.2182724304        6.6742639056
 H        -7.9861929871       -1.8144614151        7.0093917372
 H        -8.3955291511       -3.2574898676        6.1036041214
 H        -6.7935649994       -0.3345957955        3.9280852027
 H        -6.6048698428       -1.9429058484        4.1917378120
 H        -6.4671776976       -0.7588266041        5.5611068687
 H       -15.1139879537       -1.7398332814        0.6556378949
 H       -14.7264791212       -0.8060366875        2.0849225063
 H       -14.4549261786       -2.5274336364        2.0987729757
 H       -12.9874861367       -3.5132778058        0.0855028691
 H       -11.3998161096       -2.7068293601       -0.1869151485
 H       -12.8046021738       -2.1257162971       -1.0156951118
 H       -10.3910910383        5.6913980711        2.2011761598
 H       -10.3153179317        4.1105705842        3.0055869381
 H       -11.8527222497        4.7936374575        2.7766297106
 H       -12.5488166472        5.4263333296        0.2589964898
 H       -11.9687218643        4.5933015342       -1.1822270421
 H       -11.0045873110        5.8544545204       -0.3578249837
 H        -3.4067847605        5.1694524663       -2.9212963932
 H        -5.0144413339        5.5029131158       -3.6763785483
 H        -4.4751706049        3.8284678432       -3.1376902299
 H        -4.3603233842        3.3846728098       -0.2759951065
 H        -4.4631798544        5.0482736974        0.4660522814
 H        -3.1619685618        4.8021340295       -0.6159405577
 H        -8.2643560343       12.0404720387       -2.0670604105
 H        -9.8814516534       11.3679988770       -1.8619299984
 H        -8.9576244093       11.0154682536       -3.3230449011
 H        -8.8266052962       10.3644686564        0.4543741692
 H        -7.2986798930       11.0187729562       -0.0531435564
 H        -7.3875273699        9.3280610349        0.4195689198
 H       -11.1517862524        4.1075250584       -3.4521216733
 H        -9.8944015855        4.9396591500       -4.5060576962
 H       -10.9836814379        3.7716165715       -5.2323469017
 H       -12.3557179117        4.9968132832       -7.0909781362
 H       -11.2037461847        6.2816763483       -6.7364400687
 H       -12.8989249077        6.6514032556       -6.5440350985
 Na      -10.1819896580        0.6932212605        2.1990775937
