117

 C       -14.6057639124        5.4198525255       -4.7189505386
 C       -13.2743491128        5.0479626203       -3.9970365792
 O       -13.3519520683        4.5306289137       -2.9252164540
 C       -11.9380200869        5.4175743480       -4.5773231585
 C       -11.6238327005        6.8869910906       -3.9698843309
 O       -12.2715826389        7.8288572558       -4.3118716419
 C       -10.3927832203        7.0477178417       -3.0408320234
 C       -10.2861555465        8.5182544555       -2.5528772643
 C        -9.3204867146        8.7113391998       -1.3381858160
 O        -9.3410224536        7.9244135087       -0.3594460999
 C        -8.3019712789        9.9394039371       -1.3099174121
 C        -7.2150774149        9.4723532597       -2.2520658626
 O        -7.4500400673        9.3235409940       -3.4685029125
 C        -5.7745291684        9.2850136297       -1.7182288330
 C        -5.1049455193        7.9330772502       -2.1498657644
 C        -5.5005355686        6.6692759552       -1.3008145575
 O        -5.9482472581        6.8964757340       -0.1897056829
 C        -5.1641659861        5.2335634607       -1.7032160378
 C        -6.5571144401        4.4753839023       -1.7539936341
 O        -7.0184802421        4.1745891395       -2.8020902585
 C        -7.2314297752        4.1203923142       -0.4113055919
 C        -8.7649758884        4.2862465655       -0.5481511981
 C        -9.6204581226        3.3650419256        0.3446330585
 O        -9.2592516184        2.3305906552        0.8775957676
 C       -11.0478596367        3.9136303657        0.7502691111
 C       -12.0279074138        2.6446047781        0.9736649295
 O       -12.1227219664        2.0259378268        2.0275538935
 C       -12.9783705237        2.2202213685       -0.2229771777
 C       -13.5800197955        0.7948445999        0.0957225784
 C       -12.4253532655       -0.2264481701        0.2838522248
 O       -11.2422028272        0.0166698760        0.2781846103
 C       -12.8454692917       -1.6851519921        0.7768541788
 C       -12.1186633894       -1.6599997254        2.1492483985
 O       -12.4450755341       -0.8946555517        3.0202774026
 C       -11.0100354328       -2.6485801790        2.3293494628
 C       -10.3394598720       -2.6107050125        3.6572515072
 C        -9.1273798822       -1.6000859470        3.5608497057
 O        -8.7262763473       -1.2307229935        2.5041014548
 C        -8.4667562126       -1.2815415449        4.9219315996
 C        -9.0019316704        0.0846800320        5.3363722803
 O        -9.7082143165        0.7077522681        4.5701698752
 C        -8.8395908606        0.6149733242        6.8285970398
 C        -8.6648341707       -2.3472971023        6.0810711106
 C        -6.8777213231       -1.0729542146        4.7403593411
 C       -14.3897646087       -1.7612215703        1.1578316268
 C       -12.3961482329       -2.7816625458       -0.2315920067
 C       -10.8070090113        4.6305271050        2.1571536380
 C       -11.6578303916        4.9822217258       -0.1835218661
 C        -4.4877407994        5.1862446888       -3.0707107367
 C        -4.2210978307        4.7681881533       -0.5756075252
 C        -8.9104390450       11.2272461226       -1.9751265001
 C        -7.9378164487       10.3065121468        0.1576718993
 C       -10.9407362065        4.3944293170       -4.1735553151
 C       -12.1104122509        5.6434556825       -6.1173113674
 H       -14.9721383560        6.3865566268       -4.3568186548
 H       -15.4083004917        4.7394337726       -4.5614972248
 H       -14.6024861652        5.3554679527       -5.7819132274
 H        -9.5719471050        6.7246267469       -3.6913890655
 H       -10.5216167600        6.3200824113       -2.2675019740
 H       -11.2735028542        8.9958746381       -2.3008253132
 H        -9.9149490396        9.0208613081       -3.4700222345
 H        -5.6776259010        9.3439591000       -0.6565546555
 H        -5.1374727616       10.0685837441       -1.9760838565
 H        -4.0000628409        8.1987491921       -2.1732608943
 H        -5.2967711802        7.8100894270       -3.1656972097
 H        -6.8540601658        4.7457998174        0.3950942062
 H        -6.9697101148        3.0813158483       -0.2016684225
 H        -9.0245983051        4.1235405098       -1.6749620297
 H        -9.0369504897        5.3360766390       -0.3237087958
 H       -12.5228127956        2.1657255615       -1.2599283903
 H       -13.7491052094        2.9771629961       -0.3258640807
 H       -14.2761214323        0.4766601715       -0.7855652677
 H       -14.1152981370        0.7582137156        0.9861733384
 H       -10.2084731160       -2.5986889377        1.5647657039
 H       -11.4983937921       -3.6077238637        2.2156549313
 H        -9.9021402086       -3.6008615311        4.0055754401
 H       -10.8999367801       -2.3947201531        4.5726174541
 H        -9.1496863830        1.5912584344        6.8341058723
 H        -7.8795220265        0.4359724464        7.2187454542
 H        -9.5853783033        0.1013150867        7.4635523757
 H        -9.7530144097       -2.4759442736        6.2588289347
 H        -8.2534353201       -1.9823785253        6.9764984702
 H        -8.3523551497       -3.3506241950        6.0124767557
 H        -6.6228435022       -0.6263339018        3.8179417316
 H        -6.2974697741       -1.9731781547        4.8110740381
 H        -6.5064237570       -0.4179740676        5.5707870706
 H       -15.1145054661       -1.4925102239        0.3632016534
 H       -14.6088760874       -1.1251576281        2.0569126899
 H       -14.6410582840       -2.8046694934        1.3805950917
 H       -12.1574521606       -3.7338317173        0.2159224534
 H       -11.4622716150       -2.4945518512       -0.8427448140
 H       -13.2730357384       -2.8917975497       -0.8631966011
 H        -9.8496585565        5.1707484284        2.1687490885
 H       -10.8043656583        3.8376412048        2.9453891102
 H       -11.6056563706        5.4015724274        2.2364428767
 H       -12.6801791600        5.1513443925        0.1109921858
 H       -11.6499730990        4.4123373442       -1.1560264321
 H       -11.1117565653        5.9272344659       -0.2261799778
 H        -3.6050921404        5.8262615506       -3.1941808132
 H        -5.2101311462        5.3810343501       -3.8968791258
 H        -4.2504776477        4.0956089861       -3.2347919937
 H        -4.1093914813        3.6254429665       -0.6168731236
 H        -4.5822567057        4.9848449132        0.4900242614
 H        -3.2059680049        5.2907781440       -0.7462430201
 H        -8.2694662053       12.0806668984       -2.0912146966
 H        -9.8348545494       11.5489800645       -1.4132847604
 H        -9.2528817649       10.9611362615       -2.9383577252
 H        -8.7959552813       10.7811368922        0.5988111699
 H        -6.9922872377       10.7896870706        0.1745798428
 H        -7.7257449194        9.3988296868        0.7536506531
 H       -10.5280588739        4.3492872136       -3.1912413131
 H       -10.0217844898        4.4710186175       -4.7217835515
 H       -11.4428484057        3.5476360992       -4.5248016167
 H       -12.5562695768        4.6423777485       -6.5430813413
 H       -11.1786321008        5.7443530632       -6.6125673352
 H       -12.7305567882        6.4845294745       -6.3964608676
 Na      -10.2276038048        0.7766099737        2.2769453132
