117

 C       -14.7114893757        5.2172852403       -4.9305588277
 C       -13.3157034421        5.0440322092       -4.3896800566
 O       -13.1122513605        4.5369709208       -3.2896437513
 C       -12.0395422441        5.6312868954       -5.1152899806
 C       -11.9713225935        7.0256763747       -4.4238875676
 O       -12.5876465303        7.9676192031       -4.8987751104
 C       -11.1097726108        7.2221150474       -3.1066460826
 C       -10.1357204473        8.3991576922       -3.2104595739
 C        -9.3672200564        8.5875060954       -1.8272268402
 O        -9.5423901915        7.7696007951       -0.9446352899
 C        -8.2035630095        9.6192815978       -1.7769156986
 C        -6.9007623222        9.0815992479       -2.5494231906
 O        -6.9993666772        8.9842325372       -3.7292332029
 C        -5.6635194531        8.7665488264       -1.7706229681
 C        -5.0403839110        7.3601825542       -2.0994708001
 C        -5.1780164293        6.3934564386       -1.0099626495
 O        -5.5610681165        6.7204843806        0.1103410813
 C        -5.0547111547        4.8108806548       -1.3544697097
 C        -6.5711904629        4.3671686911       -1.5134036373
 O        -7.0189943503        4.2234408367       -2.6575025515
 C        -7.3572849743        4.2005039595       -0.2112583468
 C        -8.8883899582        4.4912790726       -0.3627896082
 C        -9.7539350170        3.7133612260        0.7317337286
 O        -9.2227435165        2.6691569704        1.1082481562
 C       -11.1859029216        4.1942927527        1.0607462678
 C       -12.0933949562        2.9648335469        1.3664779892
 O       -12.0193853046        2.3734383323        2.4335693910
 C       -13.0300759634        2.5640409597        0.2690915288
 C       -13.6227824854        1.1533508363        0.5096608992
 C       -12.5282823910       -0.0195282804        0.6350662760
 O       -11.3477793289        0.1952383771        0.3138084712
 C       -12.8973566958       -1.5001515355        1.1557577743
 C       -11.9788015308       -1.7244564432        2.4216974377
 O       -11.7355323565       -0.7221217779        3.0497528871
 C       -11.3113075540       -3.1601875437        2.7784720032
 C       -10.3910427170       -2.8885131282        4.0249159396
 C        -9.2882577073       -1.7970592168        3.7181795330
 O        -9.1087306114       -1.4185661884        2.5843386398
 C        -8.4661613641       -1.2467115236        4.8810754607
 C        -8.8841695356        0.3413054214        5.1790293426
 O        -9.2153823445        1.0985229585        4.2553322047
 C        -8.8388618819        0.8290928752        6.6507879005
 C        -8.8445626754       -2.0438496999        6.1183537132
 C        -6.9488395334       -1.3730123219        4.5109172633
 C       -14.3740048085       -1.5246474302        1.7523302354
 C       -12.6679645416       -2.4986268900        0.0161473633
 C       -11.0210453934        4.9728635128        2.4228497452
 C       -11.8071123784        5.0694972784        0.0187549134
 C        -4.3561224448        4.5815105067       -2.6891058329
 C        -4.3684680330        4.2075263767       -0.0717127153
 C        -8.6558326336       10.9581460015       -2.4913894361
 C        -8.0284218949        9.9217302025       -0.2488083944
 C       -10.8257398179        4.6572631045       -4.9219158478
 C       -12.2245912789        5.9168812314       -6.5969382313
 H       -14.8093255923        5.8615847127       -5.8300289382
 H       -15.3364830624        5.6069645751       -4.0922124193
 H       -15.0070187501        4.3065229602       -5.3949694698
 H       -10.5342477872        6.3135919734       -2.9450608953
 H       -11.8929041332        7.3434838978       -2.3487140379
 H       -10.8601334675        9.2031327501       -3.4423697721
 H        -9.3166175457        8.2921796054       -3.8991986996
 H        -5.6101348333        8.8402780528       -0.6554435537
 H        -4.9365691827        9.4610523407       -2.2418653024
 H        -3.9858698221        7.6038185602       -2.5051406974
 H        -5.5218725051        6.9837908917       -2.9837626750
 H        -6.9868294485        4.8079274802        0.6133276922
 H        -7.3217617281        3.1371196422        0.1303766306
 H        -9.3052518873        4.2837547290       -1.3360685001
 H        -8.9684702404        5.5114914346       -0.2338856759
 H       -12.6226776540        2.6423872940       -0.7310514773
 H       -13.9175765601        3.1734960239        0.3482214207
 H       -14.3976205653        0.7999992654       -0.2779184336
 H       -14.2251699654        1.1284923053        1.4597311992
 H       -10.7701851032       -3.5229988086        1.9145830620
 H       -12.1238456947       -3.8288867802        3.0254524348
 H        -9.8778452286       -3.8023399062        4.3262247957
 H       -10.9512968374       -2.4653611956        4.8199746838
 H        -9.0793547321        1.9512357103        6.6626409850
 H        -7.7902339336        0.7421466485        7.0245186246
 H        -9.5637307240        0.2816470514        7.1502918598
 H        -9.7975344875       -1.7443710362        6.6281624081
 H        -8.1358496227       -1.8643237143        6.9417647888
 H        -8.7606576875       -3.1067128123        5.8777281335
 H        -6.7352836123       -0.9486288111        3.4679686808
 H        -6.6678403894       -2.4179065277        4.5170558466
 H        -6.2694109520       -0.7309187008        5.1300118867
 H       -15.1377363752       -1.1917867207        1.0834016673
 H       -14.4964470275       -0.9566080975        2.6988324716
 H       -14.6124760381       -2.4858777911        2.0261434207
 H       -12.6801195151       -3.4943472295        0.4366598811
 H       -11.7757818110       -2.2129858318       -0.4364907054
 H       -13.4767028452       -2.4021909320       -0.7339421436
 H       -10.1498106223        5.5716456292        2.2530155089
 H       -10.8972631465        4.3155231092        3.2336385461
 H       -11.8873386661        5.6261876134        2.6650611744
 H       -12.7717109325        5.4832097872        0.2976007948
 H       -11.9317463261        4.5164905636       -0.9334960176
 H       -11.1567031151        5.8714975960       -0.2077980672
 H        -3.4478457279        5.1483027065       -2.7839024783
 H        -5.0506299220        4.7459503866       -3.5037261001
 H        -4.0907467861        3.5817210135       -2.6633306245
 H        -3.5841398008        3.5526504848       -0.3384484007
 H        -5.0583104951        3.7420105633        0.5700636665
 H        -3.8965593251        5.0043577317        0.4030070471
 H        -8.0305054883       11.7863033748       -2.1991975811
 H        -9.7128298215       11.2357849948       -2.2637441850
 H        -8.5817335814       10.8589326443       -3.5525885297
 H        -8.9005475111       10.3265759492        0.2760177244
 H        -7.3209489329       10.7276808632       -0.0752894520
 H        -7.7413717585        8.9812382658        0.1443369381
 H       -11.0082232924        4.0459360723       -4.0411778953
 H        -9.7938005524        4.9965749645       -5.2316171005
 H       -11.0196366894        3.9107526085       -5.6756024077
 H       -12.7569300857        5.1927957971       -7.1076591354
 H       -11.2655564341        6.0574264291       -7.1442093431
 H       -12.8679441729        6.8240036345       -6.7882077333
 Na       -9.8924170935        0.8908610933        2.2314958471
