117

 C       -13.9491516263        4.2605757732       -0.9455399469
 C       -13.0852325760        3.0763518093       -0.6629204799
 O       -12.0276910665        2.9723229003       -1.1816730975
 C       -13.5394898530        2.0911622455        0.3960088734
 C       -12.7632417892        0.7331562107        0.3719179647
 O       -12.4755032052        0.2143646322       -0.6318653886
 C       -12.0861934639        0.1185828763        1.6918560069
 C       -10.8187326089        0.8256713570        2.0146027130
 C        -9.7452292567       -0.2031729386        2.5361725352
 O        -9.6380423538       -0.6467071634        3.6723405695
 C        -8.5393876041       -0.5403481852        1.6017297028
 C        -8.8687753823       -0.5875161838        0.0729538463
 O        -8.9330164185        0.5382080301       -0.4929503850
 C        -9.2246255018       -1.9374161684       -0.5862397010
 C        -8.7953388489       -2.0643979060       -2.0633997457
 C        -9.4125102972       -1.1359194192       -3.0691859165
 O       -10.4931552042       -0.5968697854       -2.8112532604
 C        -8.7346529502       -1.1576730399       -4.4897665695
 C        -7.6452302929       -0.0265278304       -4.2800511190
 O        -7.1480419198        0.0131352759       -3.1410535674
 C        -6.9540950608        0.7929812538       -5.3555985498
 C        -6.7911226422        2.2067075531       -4.9408583896
 C        -8.2621850045        2.7887897131       -4.5161962458
 O        -9.2092065296        1.9810190585       -4.6024228429
 C        -8.3386800833        4.1719774036       -3.8746255106
 C        -7.9623872612        3.9870689578       -2.3025397536
 O        -8.6333622836        3.1926264714       -1.6412132726
 C        -7.0995926399        4.8957235557       -1.4599956588
 C        -7.6076606356        4.9666939530       -0.0624857234
 C        -7.0897436531        6.1909917649        0.6931114630
 O        -6.4057508104        6.9599084787        0.0081333175
 C        -7.4710731989        6.4692117748        2.0516081201
 C        -8.9352689778        7.2200475883        2.0183643089
 O        -9.8305245591        6.5561970726        1.6257141953
 C        -9.1997719766        8.3737991160        2.9532019386
 C       -10.6260589941        8.5158626849        3.6502798427
 C       -11.0297160831       10.0436890768        3.7365454576
 O       -10.4913378380       10.7525482393        4.5501917071
 C       -12.1807750975       10.4040724794        2.9308755092
 C       -13.5508271904        9.5440409163        3.1627372694
 O       -13.6054934418        8.3020058316        3.1819111422
 C       -14.8818251363       10.4124553910        3.1473088521
 C       -12.4307051037       12.0628606020        3.2546850907
 C       -11.9353693246       10.1533618968        1.4363341593
 C        -7.7126694545        5.1642443255        2.8613004715
 C        -6.3628068225        7.3001690485        2.6859388835
 C        -7.5478531968        5.2241215558       -4.5879905249
 C        -9.8295571609        4.6291787514       -3.7254341973
 C        -7.8427930864       -2.5838163673       -4.7190261390
 C        -9.6940207808       -0.7205344638       -5.7223326149
 C        -7.7169903380        0.9000600023        1.8419995515
 C        -7.6768128722       -1.6578406507        2.1626217343
 C       -13.6209161176        2.8673668971        1.6333684729
 C       -14.9619893693        1.6060024466        0.1298556955
 H       -14.9926254932        4.1031883015       -0.6939910458
 H       -13.7025910005        4.6110511681       -1.9579449825
 H       -13.7333529393        5.0231373596       -0.2430041413
 H       -11.8266596314       -0.9110453043        1.3122651686
 H       -12.5987608120        0.0823612420        2.7377810786
 H       -10.8972692792        1.4865859605        2.8400736374
 H       -10.5871447095        1.5422038108        1.2449483508
 H       -10.3012643373       -2.0673747484       -0.4468764758
 H        -8.7791394906       -2.6975112575        0.0085877903
 H        -8.9265088602       -2.9710700722       -2.5316422548
 H        -7.7949500545       -1.7371193742       -2.1041329050
 H        -7.7118657176        0.6170236064       -6.1719468526
 H        -6.0613827083        0.2429136332       -5.6539105920
 H        -6.2998222719        2.9880280264       -5.6732141233
 H        -6.1696649981        2.2079065536       -3.9642397035
 H        -6.9177970814        5.9060576874       -1.9229751753
 H        -6.2263550860        4.3412559821       -1.4262523633
 H        -7.3523703682        4.0031647466        0.3313831399
 H        -8.7145974343        4.8319689403        0.0010137668
 H        -8.9780252322        9.3644473655        2.5423473378
 H        -8.5331277587        8.2293798428        3.7708540145
 H       -10.5556927730        8.1560016943        4.6387782656
 H       -11.3335378082        7.8023852281        3.1424573159
 H       -15.6261130331        9.6841371597        3.4192719536
 H       -14.8820527835       10.8629327540        2.0929876848
 H       -14.6671227269       11.1898136188        3.8594757369
 H       -13.3795446860       12.5135926656        2.8481191815
 H       -11.4968611484       12.4977606299        2.8800056500
 H       -12.5075212776       11.8821296165        4.3893261282
 H       -10.9970902329        9.5629714208        1.3183299704
 H       -11.8911076248       11.0756922383        0.7668346679
 H       -12.8034844147        9.3538251576        1.0142357481
 H        -7.8217251642        5.2888579508        3.8861064910
 H        -6.9359633311        4.4668685940        2.7383217529
 H        -8.6075552053        4.8489114958        2.4058546942
 H        -6.6247406775        7.3823878873        3.7241972115
 H        -6.2459904974        8.1427737261        2.0508508950
 H        -5.4323070493        6.7831395370        2.6971848265
 H        -8.0358612195        5.5171399726       -5.5712366652
 H        -6.5743188170        4.9079044040       -4.9191878913
 H        -7.4571594456        5.9811642993       -3.8890492206
 H        -9.7708425583        5.5561733797       -3.1058490329
 H       -10.4371293913        3.9384790695       -3.1834813483
 H       -10.3566909212        4.9634070872       -4.6329680110
 H        -6.9512444163       -2.6487048861       -4.1117549452
 H        -7.5030987233       -2.5218706798       -5.6832508319
 H        -8.3083591606       -3.4968960791       -4.5968750862
 H        -9.1807352785       -0.6622755318       -6.6546076904
 H       -10.1478550687        0.1557323211       -5.2695505596
 H       -10.4499653144       -1.4819615244       -5.8801667486
 H        -7.2585887748        1.2397916986        0.8439579921
 H        -6.8650967527        0.6666795036        2.5094839828
 H        -8.2157750337        1.6460762164        2.4036922679
 H        -7.3601437070       -1.3552957225        3.2078156613
 H        -6.8220219937       -1.6799003872        1.4345515950
 H        -8.2848280122       -2.5400426299        2.2709101349
 H       -12.7913825110        3.4933271810        1.7594226751
 H       -13.6570328455        2.2375165127        2.5759695593
 H       -14.5789988503        3.4085394938        1.6427565674
 H       -15.0833266518        1.5850905409       -0.9513603830
 H       -15.7276430275        2.2623898321        0.5724338278
 H       -15.1961326741        0.5115129858        0.3202655265
 Na      -10.5067066643        1.4665366974       -1.6958484879
