117

 C       -14.6019406608        5.2390112365       -4.4974965376
 C       -13.0271976672        5.0203144857       -4.4538602775
 O       -12.5124172580        4.2951457825       -3.6396839109
 C       -12.1842132001        5.6838047037       -5.5024153880
 C       -11.8707639828        7.1738109914       -4.9560492619
 O       -12.1439860710        8.1400005972       -5.6177091358
 C       -11.4482911212        7.3327979206       -3.4830435394
 C       -10.1984565366        8.3047862444       -3.4595497909
 C        -9.4336264243        8.3964542734       -2.1258412400
 O        -9.7364472006        7.6517462466       -1.1798816596
 C        -8.2005498895        9.3469681228       -1.9597100770
 C        -7.0521541394        8.5112218819       -2.5196089101
 O        -7.0717076657        8.0856080894       -3.6582885506
 C        -5.6379631832        8.5310350570       -1.8384901268
 C        -4.8573677318        7.2603376059       -2.0795696569
 C        -4.9370760053        6.2598198034       -0.9424848167
 O        -4.9379807001        6.6121094540        0.2133165375
 C        -5.0949314753        4.6809774900       -1.2314490141
 C        -6.6162463073        4.5023028370       -1.3979658431
 O        -7.1822545127        4.5056236544       -2.4362437274
 C        -7.4341266379        4.2129343866       -0.0832704642
 C        -8.9577543531        4.5235984990       -0.3484586046
 C        -9.7938203773        3.8278636930        0.6788075032
 O        -9.3314829409        2.8539557066        1.3176387636
 C       -11.2061698334        4.4282905183        1.0333168530
 C       -12.1233310160        3.1710426830        1.3606025249
 O       -11.8702005400        2.5525433891        2.4157031269
 C       -13.1410825954        2.5999725909        0.3669081527
 C       -13.6735065720        1.2120876483        0.8272298925
 C       -12.5963383453        0.1211695475        0.7942826553
 O       -11.5483237084        0.3991781771        0.2938005404
 C       -12.9541085965       -1.2698086281        1.4187187766
 C       -12.0876132412       -1.4856372293        2.6680852868
 O       -12.0870726971       -0.6252292602        3.5466922038
 C       -11.3791068804       -2.7937120097        2.9424954108
 C       -10.3938833198       -2.7446809882        4.1060808115
 C        -9.2626726597       -1.6625321582        3.7435283354
 O        -9.1011148400       -1.2017002076        2.6191188959
 C        -8.3972248232       -1.2457413393        4.9787683857
 C        -8.7365562010        0.2034025662        5.2904274812
 O        -9.3129474699        1.0143387394        4.5478576293
 C        -8.5018497458        0.5882297387        6.7435782701
 C        -8.6106084970       -2.1661314715        6.3042627059
 C        -6.8443023923       -1.4625582808        4.5517303169
 C       -14.4217276581       -1.3282988540        2.0203332727
 C       -12.8271770938       -2.4132504779        0.3731274934
 C       -11.0529308260        5.2754067647        2.3435548204
 C       -11.7130214284        5.3655953949        0.0232281101
 C        -4.3601082851        4.2818247224       -2.6126270671
 C        -4.4597282283        3.9481851287       -0.0254751087
 C        -8.3468258524       10.6400110062       -2.8813797067
 C        -8.0696599065        9.7093619351       -0.4973613674
 C       -10.8129927227        4.9018801030       -5.5828167601
 C       -12.7812500550        5.8953040357       -6.8893036459
 H       -14.9631637140        5.9992688212       -3.7680066653
 H       -14.9926845938        4.2460676919       -4.2389160198
 H       -14.9921971709        5.6599554394       -5.4329635648
 H       -11.2314650092        6.3659853380       -3.0267786788
 H       -12.2378527714        7.7806541829       -2.8880943528
 H       -10.3773369903        9.2669537392       -3.9130121543
 H        -9.3948598307        7.7857046369       -4.0701578766
 H        -5.5267107768        8.6214483642       -0.7851552058
 H        -5.1113680727        9.2838562240       -2.3786381453
 H        -3.8304618866        7.5673846677       -2.0420010541
 H        -5.0621363700        6.8783357516       -3.1266731313
 H        -7.0921513092        4.7684592851        0.8081175058
 H        -7.2883161520        3.1743425568        0.1911195514
 H        -9.1313712024        4.0743008919       -1.3381207382
 H        -9.1638422580        5.6511398683       -0.5418124129
 H       -12.8418510730        2.5101278960       -0.7040741920
 H       -14.0062284375        3.2537712161        0.4019102466
 H       -14.5412841067        0.8330772559        0.3123057436
 H       -13.9535827915        1.2712496673        1.7769340475
 H       -10.8859765861       -3.0361659850        2.0029843129
 H       -12.1279464318       -3.5419842452        3.0675698388
 H        -9.9795193001       -3.7613833597        4.1744549240
 H       -10.8334421638       -2.3367664481        5.0348633755
 H        -8.7550969202        1.6220329146        6.8179053130
 H        -7.4682338597        0.4904029858        6.9198812870
 H        -9.0603195106       -0.0770110069        7.3909114963
 H        -9.6562064310       -2.0100940070        6.7218132063
 H        -7.8694167504       -1.8144577613        6.9891671918
 H        -8.5019053940       -3.2378855724        6.1079502741
 H        -6.5974077074       -1.0795936082        3.5886853582
 H        -6.5759457850       -2.5078109943        4.5850270962
 H        -6.1279258452       -1.1138178389        5.3341670012
 H       -15.1614875086       -1.1111587322        1.2968508963
 H       -14.5176997246       -0.5805312826        2.8036546825
 H       -14.7268690094       -2.2933432373        2.4077739145
 H       -12.8731529323       -3.3736245526        0.8000791369
 H       -11.9084107923       -2.2420749433       -0.2412285268
 H       -13.6908755071       -2.2623107398       -0.1938408626
 H       -10.1390276389        5.8287630035        2.3390802284
 H       -11.0048602344        4.6664901999        3.2388682844
 H       -11.8032208432        6.0214172804        2.3687860512
 H       -12.6463059411        5.8140060950        0.1876824434
 H       -11.8225406770        4.8052067480       -0.9019992725
 H       -11.0605505923        6.2074801175       -0.2289204700
 H        -3.4354866553        4.7635189657       -2.6875803563
 H        -5.0224520621        4.5258773250       -3.4121467523
 H        -4.2323915950        3.1895903483       -2.6487479878
 H        -5.2799370859        3.4802185324        0.5753363660
 H        -4.0223771770        4.6340434949        0.6583719532
 H        -3.6763112047        3.1526794660       -0.3341176751
 H        -7.6208896263       11.4136039312       -2.6237406581
 H        -9.3708840002       11.0574872480       -2.8477474742
 H        -8.1628135214       10.3565950604       -3.9082878001
 H        -9.0192640080       10.0335311111       -0.1478337415
 H        -7.3049596880       10.4542953598       -0.4763542628
 H        -7.7206086305        8.8747379791        0.1470402454
 H       -10.2493070958        5.0906788650       -4.6158727932
 H       -10.2446421429        5.3248477741       -6.4316960740
 H       -11.0638959902        3.8236190445       -5.7537603000
 H       -13.2166221903        4.9562672097       -7.3479625647
 H       -12.2454678636        6.4631973994       -7.6306144040
 H       -13.6793764872        6.5681542673       -6.7657213879
 Na      -10.2346384665        0.9660803491        2.3505376664
