117

 C       -13.8561275144        4.2543281164       -1.1224583251
 C       -12.9794075736        3.0840396752       -0.7162852676
 O       -11.7746050766        3.1118739692       -0.9470596346
 C       -13.5678357519        2.1226107641        0.4221131406
 C       -12.6394088097        0.6917929593        0.4053411937
 O       -12.4197288696        0.2149540396       -0.6703938039
 C       -12.2172194825        0.0960711565        1.6807369269
 C       -10.7986577493        0.7425891061        1.9825659703
 C        -9.7738300423       -0.1470550121        2.5846177466
 O        -9.8644491680       -0.6743712687        3.6303524418
 C        -8.4660645894       -0.4027502308        1.6475541996
 C        -8.8160919418       -0.5274182456        0.1113595079
 O        -8.7154183366        0.4525951095       -0.6828636434
 C        -9.2078896537       -1.8207194825       -0.5143224611
 C        -8.8708679346       -2.1381940781       -1.8756071995
 C        -9.6363477900       -1.2857885557       -3.1178864446
 O       -10.6213125116       -0.6485317639       -2.9534729892
 C        -8.7664500417       -1.2400467884       -4.4089794996
 C        -7.5947827168       -0.2443705210       -4.1397225534
 O        -7.0525698212       -0.2652612705       -3.0550929776
 C        -7.0077798424        0.7630044210       -5.2173218433
 C        -6.8325016487        2.1720078450       -4.6776701669
 C        -8.2455135398        2.8055387761       -4.4363005357
 O        -9.1836061214        2.1677568141       -4.8325000573
 C        -8.4041125105        4.1708037881       -3.6092247376
 C        -8.0938412042        3.8250916484       -2.2130391068
 O        -8.7574302203        3.1109690568       -1.4958353129
 C        -6.9345156021        4.6479527939       -1.5574463599
 C        -7.4789462548        4.9132206150       -0.1345331806
 C        -7.0123342643        6.2467388306        0.5756334729
 O        -6.2366014603        6.9792247339       -0.0626036967
 C        -7.5685680692        6.5491960247        2.0176204900
 C        -8.9973441757        7.1451764226        2.1234509574
 O        -9.9054219729        6.6109037635        1.4806055377
 C        -9.1457794307        8.5155799930        2.7983864024
 C       -10.5243978003        8.5437525352        3.5041729158
 C       -11.0183162541        9.9447146539        3.8237992630
 O       -10.3944086693       10.6272334654        4.5803218755
 C       -12.2398219673       10.4338342865        2.8543870904
 C       -13.5707866273        9.7179713695        3.0840025161
 O       -13.5514618100        8.5266521357        3.2329373632
 C       -14.9592910702       10.4803210987        3.0500174333
 C       -12.3559912899       12.0345350286        3.1258747198
 C       -11.9946593872       10.2793938412        1.3201620656
 C        -7.8265126904        5.2615299974        2.9368074812
 C        -6.3063680834        7.3965260098        2.7133199128
 C        -7.4174525108        5.1310265017       -4.3534765492
 C        -9.8712792144        4.6459063731       -3.6417830494
 C        -8.1678616953       -2.5711476523       -4.7606638692
 C        -9.6314789502       -1.0212887294       -5.7256868374
 C        -7.6462558990        0.9815569486        1.8719975107
 C        -7.6450022296       -1.5832272504        2.1977556301
 C       -13.5063197237        2.9789831074        1.7559346292
 C       -15.1247783610        1.6382563398        0.1748932455
 H       -14.8562694529        4.0527478144       -0.8603999133
 H       -13.6562584462        4.5751997986       -2.1436791892
 H       -13.6683673626        5.0510520743       -0.4458399503
 H       -12.2231383863       -0.9998511203        1.5120612981
 H       -12.9235220380        0.4142129893        2.4662389647
 H       -10.9053056169        1.7715385902        2.4166614488
 H       -10.5013761668        1.1204031062        1.0256279031
 H       -10.2429446095       -1.9570807490       -0.3800671779
 H        -8.7238419055       -2.6208239401        0.0930743882
 H        -9.0576484617       -3.2113849579       -2.0717905495
 H        -7.8229870424       -1.9304356147       -2.0555821210
 H        -7.7010785629        0.7065013237       -6.1768163709
 H        -6.0242038383        0.3420829865       -5.5546638758
 H        -6.3923349586        2.8504656303       -5.4571127943
 H        -6.1743560160        2.2300217428       -3.7641989630
 H        -6.9545083174        5.5677535463       -1.9709534948
 H        -5.9095462930        4.2076574640       -1.5982393265
 H        -7.5233981130        3.9743845161        0.4212259124
 H        -8.5601693143        5.0190735985       -0.2747221968
 H        -9.2958880920        9.2545624599        2.0031408988
 H        -8.2824053927        8.8742659065        3.4444233415
 H       -10.6155631133        7.8357138585        4.3772223042
 H       -11.1331877144        8.1028959874        2.7380921928
 H       -15.6977947161        9.6994069098        2.9198051180
 H       -14.6669179132       11.1523075488        2.1418226108
 H       -14.9191468686       11.0841642434        3.9259962312
 H       -13.2942272045       12.5320354321        2.7169774232
 H       -11.4527167352       12.2968090425        2.6351275144
 H       -12.3392941300       12.0502446200        4.2033668204
 H       -10.9324684751       10.0495805910        1.1022425792
 H       -12.2985290684       11.1698981595        0.7089844857
 H       -12.5412019769        9.3939609264        0.9927554522
 H        -7.7809687304        5.4486433615        4.0100531172
 H        -7.1987631378        4.5191975339        2.6275871065
 H        -8.8881308105        5.0201423301        2.5799327036
 H        -6.4931614013        7.4152989253        3.8066457261
 H        -5.9827124387        8.2580981758        2.0666549804
 H        -5.4851486414        6.6658207147        2.6912348152
 H        -7.8912400450        5.4310928873       -5.3144519691
 H        -6.6097360456        4.6049073297       -4.7305042900
 H        -7.0511313971        5.9932221406       -3.8043315416
 H        -9.9609565983        5.6099771399       -3.1067883831
 H       -10.6040845270        3.9689639707       -3.2262301508
 H       -10.1457722356        4.8861597842       -4.6871230041
 H        -7.3976873172       -2.9567460631       -4.1832231099
 H        -7.9411339968       -2.5745677102       -5.8044695225
 H        -8.9361730913       -3.3092317246       -4.7163549133
 H        -9.2349734753       -1.6553003366       -6.4485238019
 H        -9.7911886113        0.0395960852       -5.9314723948
 H       -10.6167410042       -1.4569916720       -5.5607742168
 H        -7.4046920971        1.3072831645        0.8738219217
 H        -6.7489017774        0.8210675639        2.4109165237
 H        -8.1132682913        1.6909580692        2.5104815372
 H        -7.8527347441       -1.4755220486        3.2531150335
 H        -6.6511396244       -1.4881976257        1.9791684053
 H        -8.2488552809       -2.5136670240        1.9351646105
 H       -12.4139213972        3.1141930987        1.9052035136
 H       -13.9781335281        2.6837494641        2.7089624817
 H       -13.9397498656        3.9371700425        1.5555401926
 H       -15.2595677103        1.0209511940       -0.6836459763
 H       -15.8799844594        2.4222381165        0.2304528200
 H       -15.3452492553        0.8484663911        0.9717007746
 Na      -10.6388036082        1.5373956236       -1.8471976453
