117

 C       -14.4495380240        4.9361407783       -4.1856912425
 C       -12.9471813646        4.8676633875       -4.4358919994
 O       -12.1575832624        4.3176562868       -3.7000316481
 C       -12.3573777579        5.6408454470       -5.7263242684
 C       -11.6577180254        7.0508010242       -5.3181358738
 O       -11.9023970133        8.0767502933       -5.9453813756
 C       -10.8648867438        7.1751779169       -4.0255927038
 C        -9.9836472866        8.3762802520       -3.8384446857
 C        -9.4570532352        8.4561613236       -2.4230409470
 O       -10.2065720899        8.1166067546       -1.5022137786
 C        -8.1164979538        9.1915654887       -2.0737030580
 C        -6.9837543572        8.2356151932       -2.4885697565
 O        -7.2149806820        7.3479040143       -3.2579922870
 C        -5.5402623748        8.3335635567       -1.7954904870
 C        -4.7789885621        7.0527486236       -2.1121355647
 C        -4.7898152091        6.0552594355       -1.0204112291
 O        -4.8108621631        6.4095152586        0.1732274870
 C        -4.9571591087        4.4721950080       -1.2796762575
 C        -6.4948872234        4.3223110370       -1.3494516190
 O        -7.1901780760        4.3669124983       -2.3482502045
 C        -7.2807401026        4.1754089686        0.0097917122
 C        -8.7617571816        4.5105359610       -0.1295050245
 C        -9.7617308667        3.6918819334        0.7146676585
 O        -9.4317200253        2.7535580996        1.4158730136
 C       -11.2163921004        4.2793716717        0.7755778610
 C       -12.2116567860        3.2542940432        1.2214799336
 O       -12.1038366544        2.7274618139        2.3573098651
 C       -13.3881722351        2.7324679512        0.2802199907
 C       -13.8888122755        1.3672243613        0.8723097657
 C       -12.7271540101        0.3595925922        1.0924386192
 O       -11.5966142637        0.5129383934        0.7938290204
 C       -13.1911911947       -1.0701041529        1.6648737843
 C       -12.2630424308       -1.2961654408        2.9278024489
 O       -12.2130541547       -0.4767361943        3.8458701162
 C       -11.4338514265       -2.5437512210        2.9427845029
 C       -10.4156600282       -2.4941949403        4.0672223329
 C        -9.3578715394       -1.3655463152        3.8190423061
 O        -9.3667624648       -0.6621610722        2.8157288247
 C        -8.3436450203       -1.1310459716        4.9452754718
 C        -8.6336456376        0.3155402231        5.5817343803
 O        -9.3849191763        1.1470284617        5.1277446189
 C        -8.0598949429        0.6159319133        6.9911862978
 C        -8.3151879973       -2.2993378193        6.0398270474
 C        -6.9255489683       -1.2540133242        4.2598152471
 C       -14.6627765784       -1.1604712745        2.1955377475
 C       -13.1041041397       -2.0570011923        0.4857843901
 C       -11.0034336361        5.2984236892        2.0450098128
 C       -11.5391808146        5.2477494923       -0.4617415410
 C        -4.4754490466        4.0953801601       -2.7093596219
 C        -4.2522529730        3.7005466807       -0.1531590042
 C        -7.8924933287       10.4032418202       -3.0025253297
 C        -8.0499973453        9.6134551334       -0.6008649683
 C       -11.1842167570        4.6416613619       -6.2204752613
 C       -13.3009418775        5.8482713520       -6.9065781326
 H       -14.6825206299        3.9769367801       -3.7607709110
 H       -15.0716179898        5.3500543944       -4.9299595295
 H       -14.4880552156        5.7470625631       -3.4589944951
 H       -10.3264337121        6.1946250892       -4.0566399438
 H       -11.5604541964        7.0232886209       -3.1635499531
 H       -10.6137280848        9.2569379226       -4.0094700189
 H        -9.2896494672        8.4846117055       -4.6898814083
 H        -5.5045460075        8.5394474073       -0.7232003626
 H        -4.8807928265        9.1435573706       -2.2376433643
 H        -3.7448664666        7.2421739429       -2.1772179096
 H        -5.1299291149        6.6390390680       -3.1185246057
 H        -6.8576307149        4.8009417089        0.8330317787
 H        -7.2246337295        3.1626516690        0.4246660321
 H        -9.0852257368        4.5636794716       -1.1773154363
 H        -8.8502281294        5.5818887651        0.1924415445
 H       -13.0437119503        2.6039087774       -0.7660799809
 H       -14.2642613061        3.3797625464        0.0834646206
 H       -14.6434451861        0.8500985491        0.0789479734
 H       -14.4236653481        1.5668632258        1.7845854142
 H       -11.0379899652       -2.5765489771        1.9107489238
 H       -12.1046227471       -3.4575513976        2.9977197749
 H        -9.7958716277       -3.3846331084        4.0152829939
 H       -10.7881110854       -2.4270326909        5.0966099763
 H        -7.9449728757        1.7286118326        7.0861176311
 H        -7.1660759169        0.0245450864        7.0842189104
 H        -8.7714961500        0.2559965842        7.7260538550
 H        -9.2491125904       -2.1405995680        6.5785727698
 H        -7.4954922584       -2.1886937564        6.7168341875
 H        -8.2748654629       -3.2309884505        5.4927516575
 H        -6.9146070806       -0.6254780708        3.4110350629
 H        -6.7353043652       -2.2411203159        3.9080660719
 H        -6.1525904050       -0.7801867362        4.8773600700
 H       -15.3484748228       -1.0053250313        1.3657981303
 H       -14.9109360949       -0.3325130020        2.8929559328
 H       -14.8440521200       -2.1070266100        2.7795043185
 H       -13.2540406697       -3.0730342290        0.8236549641
 H       -12.1487992978       -1.9290649494       -0.1434259830
 H       -13.9172460539       -1.7859670508       -0.1521353273
 H       -10.0603524657        5.8158944795        2.0118582013
 H       -11.0589799502        4.7409684228        2.9991183692
 H       -11.7963649169        5.9909344159        2.1405680530
 H       -12.5727149449        5.3728984020       -0.6835702670
 H       -11.1857059387        4.8238190964       -1.3882572926
 H       -11.0574031244        6.2452591836       -0.4324964487
 H        -3.4604408668        4.4310319702       -2.9122204989
 H        -5.1664128620        4.5937708139       -3.3947234865
 H        -4.4609505700        2.9570192253       -2.7846509248
 H        -3.6627022208        4.3335510664        0.5388161862
 H        -3.5870502435        2.9978672774       -0.5741293516
 H        -4.8804296589        3.0906992500        0.5442134931
 H        -6.8828659282       10.8016051610       -2.7704526616
 H        -8.5870782379       11.2301177417       -2.9189340923
 H        -7.8255145121       10.0199837781       -4.0336361017
 H        -8.9312465962       10.1442690066       -0.3655162305
 H        -7.2845931501       10.3667282821       -0.5278793625
 H        -7.8500995378        8.7943780181        0.1156355404
 H       -10.4187769722        4.5765239532       -5.4336075483
 H       -10.8266531187        5.0205173732       -7.1487341469
 H       -11.7283003361        3.6855101997       -6.3625441916
 H       -13.8490706228        5.0058643022       -7.3259026917
 H       -12.6859354501        6.0805627652       -7.7035672464
 H       -13.9877496539        6.6654780373       -6.7216264779
 Na      -10.4021195724        1.2770337662        3.0399923733
