117

 C       -14.5559998665        5.3511739986       -4.1229400385
 C       -13.1352229259        4.9626358143       -4.3304755871
 O       -12.6142961307        4.2231412264       -3.5096211298
 C       -12.3010452781        5.2697486886       -5.6748060386
 C       -11.6111343399        6.6374817269       -5.3772689186
 O       -11.9626086171        7.6941396671       -5.8826456928
 C       -10.5501367752        6.6909395422       -4.2807775006
 C        -9.7927494326        8.0822621372       -4.1035958677
 C        -9.2411455876        8.2692081577       -2.7214177142
 O        -9.8193799062        7.8113873327       -1.7671662495
 C        -7.8484286020        8.9003129839       -2.3032379678
 C        -6.7910229653        7.6456855259       -2.3830339225
 O        -7.0262521731        6.6496152812       -3.0397262562
 C        -5.4296301379        7.8645060798       -1.8643844741
 C        -4.5327311687        6.6612575054       -1.9052598745
 C        -5.2419624621        5.6227738414       -0.9516644275
 O        -5.7359585674        5.9276246621        0.0644163264
 C        -5.0581583626        4.0855228894       -1.2733195983
 C        -6.4471171352        3.3807160705       -1.3751293203
 O        -6.7041184994        2.7132507601       -2.3184714146
 C        -7.3233815077        3.4245602660       -0.1408860140
 C        -8.7242828135        4.1453978019       -0.3905096812
 C        -9.7377348691        3.8481891097        0.7477789922
 O        -9.4435065521        2.9998650893        1.5727330310
 C       -11.1441336868        4.6160065888        0.8157877053
 C       -12.2146585943        3.5316235879        1.1411409822
 O       -12.2554651323        3.1083396472        2.2981586388
 C       -13.2389135366        2.9672779573        0.0236630306
 C       -13.8406833981        1.6793600182        0.4680827160
 C       -12.9474896238        0.7143609487        1.1614756602
 O       -11.7377878847        0.8202661716        0.9689904486
 C       -13.4466387570       -0.4458619429        2.1029850322
 C       -12.2263436132       -0.8402648413        3.0816164255
 O       -12.0958468220        0.0006742942        3.9714844510
 C       -11.4480855521       -2.2337460627        3.1358234998
 C       -10.3257282689       -2.0552663700        4.2516640394
 C        -9.2559831799       -0.9946456522        3.8248822509
 O        -9.3163752185       -0.6873943917        2.6313086226
 C        -8.2375917002       -0.5611983304        4.8162959471
 C        -8.8216948396        0.8650093959        5.5144577311
 O        -9.4299401806        1.7134630429        4.8979607425
 C        -8.6023776458        1.0123067272        7.0251383059
 C        -7.7980629870       -1.6352794410        5.7815048084
 C        -7.0053707868       -0.2253189702        3.9984302528
 C       -14.5908744014        0.0523861471        3.0229006401
 C       -13.8572876766       -1.5909337228        1.1544387070
 C       -11.0121696623        5.5301275257        2.0921023496
 C       -11.5473622078        5.4078787351       -0.4410583705
 C        -4.2785945976        3.8138095928       -2.5803956188
 C        -4.2840215997        3.3949472000       -0.1013346787
 C        -7.3111209351        9.8622783363       -3.3462560470
 C        -7.8626503397        9.4698351344       -0.8522778637
 C       -11.1875645589        4.2675685441       -6.0233068965
 C       -13.3424982737        5.4338159075       -6.8512162636
 H       -15.1492899945        5.4314552968       -5.0395199136
 H       -14.5917074412        6.3995776475       -3.7644226955
 H       -14.8776077097        4.6415325658       -3.4337000670
 H        -9.7889725024        5.9171000098       -4.2671281506
 H       -11.1097644930        6.5545428674       -3.3745856669
 H       -10.5506143583        8.8324363396       -4.3345291782
 H        -8.9705930032        8.0901327089       -4.8543958856
 H        -5.4968481324        8.3419355354       -0.8788148295
 H        -5.0939419287        8.6874099258       -2.5044085438
 H        -3.5426819352        7.0090889229       -1.5698860520
 H        -4.4242995662        6.2218306294       -2.9079590312
 H        -6.9282844404        3.8950510378        0.7543012172
 H        -7.6241179229        2.4380288093        0.0931211446
 H        -9.2402434920        3.7964747574       -1.2458067426
 H        -8.5306783559        5.2252737594       -0.5508359239
 H       -12.5302788514        2.7038164084       -0.7579789288
 H       -13.8677890033        3.7442539573       -0.2888899835
 H       -14.2368873186        1.1915410861       -0.4372513500
 H       -14.8524864851        1.8541895032        1.0878598857
 H       -11.0410354380       -2.4859390475        2.1736267009
 H       -12.2233795852       -2.8670423582        3.4365479473
 H        -9.8682367475       -3.0159028238        4.5235800872
 H       -10.7266693341       -1.6341898253        5.1802938512
 H        -8.3158841410        1.9988632508        7.2876415413
 H        -7.7430986998        0.3366788330        7.2439356684
 H        -9.5811127903        0.7232479428        7.5123675193
 H        -8.6274232474       -1.9251241753        6.4599107058
 H        -6.8900005109       -1.3735682203        6.2705476786
 H        -7.6597707661       -2.5452622164        5.2341670814
 H        -7.1952033227        0.4826589160        3.1395743321
 H        -6.5637825130       -1.0693628698        3.4553530933
 H        -6.2496710016        0.1720083916        4.6819217594
 H       -15.3646031432        0.4987828753        2.3572852029
 H       -14.2236989485        0.8161523512        3.7626776976
 H       -14.9603568135       -0.7993305809        3.5735265835
 H       -13.0472101384       -1.8091605030        0.4217675401
 H       -14.7681197100       -1.4945816614        0.6314467352
 H       -13.9150226427       -2.6296961838        1.6587052133
 H       -10.3848143089        6.3936312884        1.8754872870
 H       -10.5328479413        5.0273275014        2.8939586654
 H       -12.0414364032        5.9191313703        2.3535892391
 H       -12.3771303959        6.0625758375       -0.2040675510
 H       -11.8219842651        4.7464737985       -1.3342077927
 H       -10.6740702093        6.0073681783       -0.6721483768
 H        -3.2209532655        4.1540866990       -2.6243167093
 H        -4.8691611693        4.2995256366       -3.3975294739
 H        -4.1998276048        2.7492825732       -2.7389608877
 H        -3.5169451880        2.7322141097       -0.4096885220
 H        -4.9619784451        2.8379831763        0.4554754693
 H        -4.0031756990        4.1964231644        0.6148287422
 H        -6.3603266955       10.2882117394       -3.0168119942
 H        -8.0173129679       10.7541541877       -3.4027024756
 H        -7.1999804112        9.4281870228       -4.3105933029
 H        -8.7917708150       10.0338159055       -0.6477054323
 H        -6.9913970730       10.0511626334       -0.5436532073
 H        -7.7429892458        8.6615709352       -0.1508897044
 H       -10.6749560991        3.9269540718       -5.1857840100
 H       -10.4601453607        4.8041954867       -6.6240945123
 H       -11.6450260250        3.5595074254       -6.6283257868
 H       -13.9918258263        4.5471704139       -7.0048614234
 H       -12.7547221947        5.5768460772       -7.8090583094
 H       -13.9714577757        6.2591551140       -6.6298804473
 Na      -10.5865301325        1.5826572307        2.8658681343
