117

 C       -14.5759558065        5.2519467819       -4.1164265438
 C       -13.0679878037        4.8348486390       -4.3457883298
 O       -12.4634234033        4.2127675750       -3.4904129059
 C       -12.3088016561        5.3206969722       -5.6570097250
 C       -11.5709040254        6.7895923617       -5.3186627871
 O       -11.9961330240        7.7082058264       -5.9557772889
 C       -10.5412277222        6.8153162643       -4.2135458985
 C        -9.8205109441        8.1641113818       -4.1495502522
 C        -9.2720368420        8.2645224841       -2.6759332419
 O        -9.9190181822        7.8008539903       -1.7370788800
 C        -7.8565199519        8.8805442983       -2.3267657769
 C        -6.8374128346        7.7176123833       -2.5056600233
 O        -7.1040020196        6.6726889466       -3.0639282671
 C        -5.3740084548        7.9690062001       -1.7488753942
 C        -4.5480476694        6.6458498667       -1.8461265760
 C        -5.1034440206        5.5925747423       -0.9601841332
 O        -5.6615813257        5.9736723742        0.0884207400
 C        -5.0549590071        4.0839724851       -1.2813992448
 C        -6.5388956717        3.4047366951       -1.3792581872
 O        -6.8572883451        2.6481506845       -2.3238458110
 C        -7.3894251873        3.5071807733       -0.1629654151
 C        -8.7890545836        4.2409600679       -0.3646207018
 C        -9.7761667622        3.8407007754        0.7525138646
 O        -9.4524399410        3.0661720419        1.6159937338
 C       -11.1279465536        4.6524398489        0.8559236993
 C       -12.2407052562        3.5735444261        1.1426303569
 O       -12.2677797275        3.1193126837        2.2840899976
 C       -13.1760880888        2.9206868753        0.0772208480
 C       -13.8474791680        1.6374179274        0.5290430070
 C       -12.7551994737        0.6291482092        1.2043775079
 O       -11.6255148006        0.7199952515        0.9131147374
 C       -13.3776726096       -0.5323457123        2.1088000311
 C       -12.3147798866       -0.9077160847        3.2281662191
 O       -12.0075191406       -0.0228033911        4.0341753198
 C       -11.5396474094       -2.2033531200        3.2330196173
 C       -10.3927536924       -2.1769314699        4.2284309057
 C        -9.3240460105       -1.0239893361        3.7531765727
 O        -9.4124820856       -0.5443107217        2.6422894947
 C        -8.2980424088       -0.5802758422        4.7686048634
 C        -8.8347118548        0.7104187710        5.5075660901
 O        -9.4034219042        1.6164665723        4.9002980366
 C        -8.4622287937        0.9601576739        6.9597127234
 C        -7.9566238454       -1.7339336209        5.7689630440
 C        -6.9784729401       -0.1772945375        4.0844522860
 C       -14.6202722654       -0.1101933633        2.9272419846
 C       -13.7496565977       -1.6193323671        1.0489325608
 C       -11.0573989156        5.5852863049        2.0656528966
 C       -11.4512241234        5.4321890587       -0.4565563180
 C        -4.2138837319        3.9150767286       -2.6346238131
 C        -4.2717830879        3.4867146475       -0.0430350941
 C        -7.3226903444       10.0351845258       -3.3232900134
 C        -8.0073060704        9.3929278966       -0.9307953695
 C       -11.3145734608        4.1639957402       -6.0740382127
 C       -13.2250045615        5.6387683727       -6.8576908531
 H       -15.1058140612        5.6920103923       -4.9688944793
 H       -14.3368945979        6.1768932742       -3.6077587361
 H       -15.0822695521        4.5441198632       -3.4794919207
 H        -9.7520936148        6.0634715455       -4.3672068472
 H       -10.9602222089        6.6054827037       -3.2224483715
 H       -10.5633859376        8.9845067785       -4.2497345398
 H        -9.0865925663        8.1328990766       -4.9639625968
 H        -5.5060381489        8.3625940358       -0.7276521968
 H        -4.8833581338        8.8550571269       -2.2980232356
 H        -3.5228887007        6.8670028545       -1.5336716316
 H        -4.4709641447        6.2242824419       -2.9236775621
 H        -6.8990708998        4.1149114677        0.6261739155
 H        -7.6761087756        2.5539413793        0.2626367343
 H        -9.3293021923        4.0736409486       -1.2691130399
 H        -8.6145849654        5.2747673375       -0.3309204172
 H       -12.7168791169        2.8401599413       -0.8860872026
 H       -13.9228974212        3.7453458786        0.0948084397
 H       -14.3625649490        1.2674731384       -0.3786927316
 H       -14.6407304233        1.8860408934        1.1502311207
 H       -11.0309288138       -2.1590676159        2.3005788189
 H       -12.2305492713       -3.0609718040        3.3009570612
 H       -10.0293090575       -3.1744548356        4.1878472200
 H       -10.5784774891       -1.9451021329        5.2596225357
 H        -8.1573627337        2.0587150208        7.0220727078
 H        -7.5736590415        0.3322993706        7.3348461300
 H        -9.4252515184        0.8527043940        7.4572733995
 H        -8.8114342868       -2.1027482111        6.3396668100
 H        -7.1155955692       -1.4289523761        6.3175485632
 H        -7.7185319180       -2.6134352241        5.1968490565
 H        -7.1135931670        0.5392853127        3.2761888109
 H        -6.6335173416       -0.9944723323        3.5528968309
 H        -6.1411127633        0.0823324362        4.7799255018
 H       -15.4205321207        0.1798985127        2.2486160998
 H       -14.3199345166        0.7617878282        3.6189974199
 H       -14.9250464355       -0.9889179836        3.5616729345
 H       -13.1704180208       -1.5850773935        0.1025382273
 H       -14.8226981730       -1.6451613785        0.7994471702
 H       -13.5466090876       -2.6579688401        1.3610326966
 H       -10.4424664154        6.4335362772        1.8650244176
 H       -10.6085117960        5.0950712393        2.9173658374
 H       -12.0437352019        5.9476668384        2.2621699694
 H       -12.4825875949        5.7002359143       -0.3334262617
 H       -11.3025972429        4.9281946647       -1.4322319270
 H       -10.9124293332        6.3901185835       -0.4110209484
 H        -3.1566699769        4.1663683977       -2.5980842757
 H        -4.7330921387        4.5145221118       -3.4011258536
 H        -4.1934490960        2.8181629317       -2.9511745034
 H        -3.5933211717        2.8016147603       -0.3721128203
 H        -4.9181707183        2.9540849117        0.6532821214
 H        -3.8701603695        4.2047184136        0.5068556864
 H        -6.4024722512       10.5640967994       -2.9880740911
 H        -8.1171549903       10.7696833588       -3.3562581528
 H        -7.1592401520        9.6609240196       -4.3428324090
 H        -8.8736404658        9.9669427065       -0.8490529782
 H        -7.1706410636        9.9085567432       -0.5823397339
 H        -8.0077244992        8.5802892859       -0.1979504368
 H       -10.9199201807        3.6671815538       -5.2092292715
 H       -10.4709771832        4.6076882597       -6.5488173015
 H       -11.8655632112        3.6509452098       -6.7870633795
 H       -13.8895479864        4.8846049255       -6.9245000847
 H       -12.6358185368        5.6932339873       -7.7694488133
 H       -13.8365442144        6.5538534814       -6.6651427881
 Na      -10.4854518708        1.4459952185        2.8035540741
