117

 C       -13.8089932124        4.2501537910       -1.3247512897
 C       -12.9917018382        3.1948632981       -0.5588998221
 O       -11.7351905150        3.2543713000       -0.7089082039
 C       -13.5142536069        2.1174224609        0.3693025685
 C       -12.8151452248        0.7736228489        0.4153478987
 O       -12.3771207124        0.3379564703       -0.6902578561
 C       -12.3402355974        0.2192430680        1.7367878090
 C       -10.8209353026        0.7867539740        1.9320292426
 C        -9.8275824615       -0.2459737156        2.4639981551
 O       -10.0754153792       -0.7179417289        3.5674894686
 C        -8.3337679021       -0.2189321615        1.6996634500
 C        -8.6878035293       -0.4567536404        0.1186569804
 O        -8.5461472077        0.4129768476       -0.6937514471
 C        -9.4178098331       -1.8721543199       -0.3402722086
 C        -9.0625496507       -2.1655185545       -1.8313576688
 C        -9.6418176557       -1.3206607759       -3.1179146693
 O       -10.7054140192       -0.7341902629       -3.0299929972
 C        -8.7636835793       -1.4865730726       -4.4921452984
 C        -7.4691585406       -0.4230465325       -4.0477409917
 O        -6.9093849137       -0.4899164787       -3.0144813998
 C        -7.0737106899        0.6711961948       -5.1280274495
 C        -6.9457483363        2.0462702659       -4.4647549322
 C        -8.3392441491        2.7097261753       -4.4401594103
 O        -9.3640814713        2.3656636066       -4.9668980468
 C        -8.4006332464        4.0310963904       -3.6346064472
 C        -8.1693721831        3.7469246940       -2.1028274408
 O        -8.8487738872        2.9558502849       -1.4852646561
 C        -6.8962776102        4.4366058852       -1.3170383499
 C        -7.4591111378        4.9699900439        0.0520109516
 C        -6.8957129417        6.2591118877        0.5160528412
 O        -6.1586526651        7.0363764185       -0.0049628028
 C        -7.5287309217        6.4156770477        2.0015021270
 C        -8.8324452015        7.3099678704        1.8661268562
 O        -9.8173404327        6.7293759644        1.4163683110
 C        -9.2010921686        8.6456083240        2.5354718720
 C       -10.5704584670        8.4697388512        3.2838833926
 C       -11.0197173672        9.8839519612        3.6147604180
 O       -10.5108375635       10.5388450394        4.5527515532
 C       -12.1433746262       10.5843128896        2.8135895841
 C       -13.5768952058        9.8482181271        3.1303508443
 O       -13.5589396887        8.6835552651        3.3355395636
 C       -14.9722713750       10.5549534709        2.9472251028
 C       -12.2467279850       12.1581316210        3.0726665068
 C       -11.9356631899       10.4105325237        1.2758755750
 C        -7.7266192193        5.2388348090        2.9465226912
 C        -6.4465753245        7.4245463693        2.7386798400
 C        -7.3937401000        5.1636221765       -4.1908195091
 C        -9.8340090515        4.6421062146       -3.7278851249
 C        -8.2389539656       -2.8674032593       -4.6628657567
 C        -9.7830207656       -0.9628559878       -5.6304663252
 C        -7.5317480075        1.0740146549        1.8559903806
 C        -7.5967977963       -1.5081127208        2.2387902032
 C       -13.3389852098        2.8603306302        1.7627900874
 C       -15.0146911862        1.7356515956        0.2372425066
 H       -14.8586420359        4.0252647065       -1.3269231790
 H       -13.3638767033        4.1453082163       -2.2663109672
 H       -13.7770225401        5.3046447293       -0.9890320639
 H       -12.3901093206       -0.8455697209        1.6036620709
 H       -12.9541849953        0.4940059777        2.5101065651
 H       -10.7854308701        1.7617615562        2.4941537921
 H       -10.5697834034        1.2454558997        0.9582906881
 H       -10.5002247204       -1.7301271366       -0.2012605926
 H        -9.1564103224       -2.8115808391        0.2264650386
 H        -9.5490315580       -3.1796869831       -2.1332718784
 H        -7.9281496734       -2.2320596846       -1.9979446440
 H        -7.6462185523        0.6639299693       -6.0391213953
 H        -5.9975675927        0.4128378293       -5.4097899747
 H        -6.3714633012        2.6626878503       -5.0558564378
 H        -6.5295362678        2.0947704644       -3.4953934545
 H        -6.4247754069        5.2700369535       -1.8653464844
 H        -6.1006461299        3.6970178486       -0.9755071373
 H        -7.0834355033        4.2253329646        0.7957074858
 H        -8.5067248314        4.8413785083        0.2173900961
 H        -9.1781220939        9.6064897807        1.9760347097
 H        -8.5736246931        8.8469890182        3.4534180337
 H       -10.2760064062        7.9883259396        4.2713717429
 H       -11.3166145082        7.8458849665        2.8164134993
 H       -15.5618429176        9.7243447619        2.5266626035
 H       -14.7830125792       11.3168201893        2.3454270098
 H       -15.1545090615       10.9216995639        3.9817399914
 H       -13.0823648202       12.4022077786        2.4899520946
 H       -11.3621822184       12.5174728830        2.5886540658
 H       -12.4488457619       12.3570688310        4.0394659647
 H       -10.9674439031       10.7803333581        0.9890890378
 H       -12.6346463277       10.9002789630        0.6868386683
 H       -11.9076071651        9.4334089069        1.0958825803
 H        -7.8343518042        5.6547254932        4.0366847703
 H        -6.7549736101        4.5652341557        2.8029829913
 H        -8.6339065142        4.7027455856        2.6676745919
 H        -6.7456426375        7.5815457425        3.7988127086
 H        -6.3460629066        8.2383610369        1.9672391831
 H        -5.4280355301        6.9047851272        2.8098020474
 H        -7.5189603676        5.3115538097       -5.2094085829
 H        -6.3132728998        4.9045136263       -4.0933069965
 H        -7.6410214647        6.1434995959       -3.6570028729
 H        -9.9560161097        5.5725212612       -3.2014232605
 H       -10.6006367059        3.9281621854       -3.3101190107
 H       -10.1129210558        4.8164194867       -4.7578291998
 H        -7.9430111580       -3.2470896259       -3.7039940129
 H        -7.5541749163       -3.1018656482       -5.5289400991
 H        -9.1084354308       -3.5535614476       -4.8997338975
 H        -9.6656657355       -1.7532767929       -6.3913823493
 H        -9.6618290924        0.0545921578       -5.8958117314
 H       -10.8364636649       -1.0677554451       -5.3242557920
 H        -7.4285789107        1.4314945411        0.9233361372
 H        -6.6055943506        0.9681444513        2.3340787139
 H        -8.0143233986        1.7351316319        2.5823808151
 H        -7.9279924854       -1.5800022137        3.2184405319
 H        -6.5205529771       -1.4048740914        2.2194247856
 H        -8.1143652161       -2.2809950638        1.7248866617
 H       -12.3008726292        2.6526310073        2.1418878939
 H       -14.0678130316        2.7120872834        2.5153758511
 H       -13.3768708972        3.9433205147        1.5731689507
 H       -15.2865648716        0.7844384790       -0.2425483455
 H       -15.5999985176        2.5488355360       -0.1952367545
 H       -15.4157996961        1.5982363105        1.1891275270
 Na      -10.6096588482        1.4704542945       -2.0711309783
