117

 C       -14.3451907205        5.0783565956       -4.1471809402
 C       -12.8831613164        5.0005789221       -4.3848371105
 O       -12.1495116889        4.4832288336       -3.5365740711
 C       -12.2406129098        5.4917655226       -5.7011453127
 C       -11.4742480299        6.8543738835       -5.3398188702
 O       -11.8509474272        7.9172796292       -5.8429317119
 C       -10.4471762690        6.7114062392       -4.2796916506
 C        -9.7989237340        8.0882546290       -4.0142889418
 C        -9.4290897643        8.3406379838       -2.5446949257
 O       -10.0816906781        7.9829347630       -1.5961777264
 C        -8.1098953685        9.0755574299       -2.2479988392
 C        -7.0025889940        7.9059823351       -2.3814881468
 O        -7.1884841380        7.0178383802       -3.1968947159
 C        -5.6147597232        8.0430273193       -1.7734421265
 C        -4.8112640135        6.8182865845       -2.0799669328
 C        -5.0527374231        5.8352313198       -0.9294983036
 O        -5.2715135455        6.1456062259        0.2218315347
 C        -5.0223300966        4.2167002506       -1.3728567660
 C        -6.5372759962        3.7200945915       -1.3810992661
 O        -7.1107207897        3.4283227190       -2.3504811700
 C        -7.3508524379        3.8424233710        0.0040732932
 C        -8.7804467181        4.3285101129       -0.2830197597
 C        -9.7105604469        3.9842228868        0.8013276403
 O        -9.3545043067        3.2919421039        1.7776990476
 C       -11.1929414801        4.6157013881        0.8070376977
 C       -12.1451969225        3.5215526633        1.2711927225
 O       -12.2012577154        3.1360841602        2.4274609605
 C       -13.0898813060        2.8231607047        0.1202345596
 C       -13.6960330709        1.5346493733        0.7613904793
 C       -12.8000967907        0.4038153697        1.1214838791
 O       -11.5718924558        0.4170266955        0.9283841895
 C       -13.3773100167       -0.9367164405        1.9008763097
 C       -12.2929959983       -1.1417043898        2.8894765933
 O       -12.0415420273       -0.2736626057        3.7082735263
 C       -11.4509034015       -2.5000468219        3.0580500477
 C       -10.5097973501       -2.3102205632        4.1951972053
 C        -9.3472885907       -1.2872561072        3.7695041680
 O        -9.4224478261       -0.6760967406        2.7173638324
 C        -8.2013967841       -0.9457474400        4.8936990594
 C        -8.7059108155        0.3967886861        5.5516880376
 O        -9.4746646065        1.1743761626        5.0536400864
 C        -8.1535367769        0.8528094099        6.9394914573
 C        -8.1060124005       -1.9380967410        6.0015521098
 C        -6.9144497908       -0.6861125573        4.0811645232
 C       -14.7131022721       -0.6089738508        2.6227087391
 C       -13.6483909190       -1.9965309874        0.7784429010
 C       -11.0658543981        5.7326707256        2.0063242121
 C       -11.4796473416        5.3114226563       -0.5729347697
 C        -4.3162331137        3.9213443362       -2.6895087609
 C        -4.2896910751        3.5385493400       -0.1625486565
 C        -7.7633686762       10.2007521744       -3.2372512694
 C        -8.1092724152        9.6841258454       -0.7752319606
 C       -11.3411392171        4.3821082674       -6.3786769136
 C       -13.3734565793        5.8736902170       -6.7657027437
 H       -14.7928414728        4.6885919280       -5.0367799876
 H       -14.7395587537        6.0577613594       -3.8866360166
 H       -14.4350891851        4.3333835584       -3.3117133066
 H        -9.7476116661        5.9006574264       -4.4902378647
 H       -10.9692063061        6.4742527462       -3.3110837372
 H       -10.4580854504        8.8728832181       -4.4774855900
 H        -8.8795994582        8.1512177850       -4.5966225910
 H        -5.6077089696        8.4897491386       -0.7183770834
 H        -5.2204534527        8.8779935734       -2.4120817554
 H        -3.6873252829        7.0721744450       -2.1353517834
 H        -5.1046923472        6.4204168988       -3.0425947536
 H        -6.8775611155        4.4975735898        0.7161078014
 H        -7.3114272277        2.8264252984        0.4628793997
 H        -9.1109547696        3.9817316851       -1.2531645779
 H        -8.7050310388        5.3650546141       -0.3994418757
 H       -12.3963450916        2.6261372891       -0.7007143142
 H       -13.8573472211        3.5094577163       -0.3049657075
 H       -14.4708926596        1.1586645699        0.1880552897
 H       -14.0942628824        1.8761508602        1.7055770599
 H       -10.9228748845       -2.5928451062        2.1072296573
 H       -12.0804132408       -3.3774528565        3.2508604107
 H       -10.1221051998       -3.2124344816        4.6092286995
 H       -10.9933365489       -1.8241858959        5.0217310930
 H        -8.6794425180        1.7677193877        7.2562284931
 H        -7.1209265757        1.1842752623        6.7067921726
 H        -8.2667714607        0.0263011141        7.7497705787
 H        -9.0806202053       -1.8087542532        6.3762536225
 H        -7.4328989247       -1.5203138224        6.7778182453
 H        -7.8623752631       -2.9600367646        5.7250057251
 H        -7.0944912924       -0.0149357465        3.2719033579
 H        -6.4496777910       -1.6808268719        3.7324442299
 H        -6.1247720208       -0.2355726910        4.6284311006
 H       -15.5321263056       -0.3887346554        1.8623572450
 H       -14.5729177333        0.1953956138        3.3131724313
 H       -15.1398745692       -1.5347219453        3.1138761178
 H       -13.0429701602       -2.9155065585        0.7856527877
 H       -13.4655705649       -1.5954668603       -0.2628428116
 H       -14.7053405744       -2.2879584581        0.8345395700
 H       -10.3736786385        6.4863758043        1.6149826475
 H       -10.6476650973        5.3527638291        2.9449330604
 H       -11.9699048325        6.2639345519        2.2467729726
 H       -12.5140737385        5.7684640757       -0.6038680740
 H       -11.3294236959        4.6246724457       -1.3650954593
 H       -10.8118485400        6.1396029616       -0.8136258266
 H        -3.2786695421        4.3486976987       -2.5844167702
 H        -4.8613893660        4.2850503807       -3.5735542197
 H        -4.3540527560        2.8365834607       -2.8388944341
 H        -4.9049846426        3.0141069680        0.4765770472
 H        -3.8395987779        4.2141000442        0.4051012459
 H        -3.5831357638        2.7686762974       -0.4883882483
 H        -6.8420044909       10.7019983317       -2.9246949259
 H        -8.5847580632       10.8915326481       -3.2559842692
 H        -7.6211182967        9.8719384830       -4.3029329935
 H        -8.9978379544       10.2286002636       -0.4584813857
 H        -7.2602949493       10.3761319467       -0.6745238313
 H        -8.0370039216        8.9367786495       -0.0237338018
 H       -10.7584553672        4.1153932704       -5.5244821065
 H       -10.7956834337        4.8687808549       -7.1312210331
 H       -11.8644146891        3.5009673518       -6.7406454306
 H       -14.0274387759        4.9905414379       -6.9577162064
 H       -12.8947708876        6.2114469952       -7.6153863120
 H       -13.9740458501        6.6724927075       -6.5534490289
 Na      -10.5211052299        1.4781693207        3.0099809854
