117

 C       -14.7526514121        6.1023666935       -4.4930418048
 C       -13.5476271935        5.1789858128       -4.1203831331
 O       -13.4725472012        4.6069431769       -3.0493421983
 C       -12.4735287021        4.9302874961       -5.2016060591
 C       -11.6272282671        6.3174452089       -5.3027902114
 O       -11.6979574495        7.0260317076       -6.2782151242
 C       -10.8169157971        6.6973384601       -4.0234058864
 C        -9.5408755373        7.5968365947       -4.1464084552
 C        -9.1095157594        8.1252080362       -2.7949548332
 O        -9.7285776197        7.8703456676       -1.7733570347
 C        -7.5534222344        8.5760937935       -2.6459929635
 C        -6.6584269291        7.3670226285       -2.4925272512
 O        -6.9467987809        6.2190225499       -2.7477124517
 C        -5.1073896100        7.5319975437       -2.0618140876
 C        -4.4759176440        6.1345725899       -2.3040871556
 C        -4.7821344705        5.2104394943       -1.1311504257
 O        -5.1201321179        5.6043203160       -0.0308811618
 C        -4.7551093419        3.6319940823       -1.4506729541
 C        -6.2180462619        3.2962637670       -1.7497843413
 O        -6.6981888260        3.0116740204       -2.7955552996
 C        -7.1215832760        3.3330699355       -0.4966143593
 C        -8.5868204707        3.7213792599       -0.8549893438
 C        -9.5082843585        3.5088169022        0.3380103087
 O        -9.2077095229        2.8713875198        1.3445493059
 C       -10.9059522304        4.2975271556        0.3793391017
 C       -11.9976496610        3.3735241046        0.8372152140
 O       -12.1920712789        3.2069152784        2.0223003719
 C       -12.9979050690        2.7433563560       -0.2522095646
 C       -13.8611103108        1.7468395224        0.4545947716
 C       -12.9628085204        0.8098428896        1.3946824929
 O       -11.7934093355        0.6748231982        1.1814569129
 C       -13.6743046270        0.0004327065        2.6117264358
 C       -12.5752798860       -0.2774907846        3.6554426621
 O       -12.2233618301        0.5678850448        4.4679416541
 C       -11.7936782160       -1.5549522825        3.3897230085
 C       -10.5491165828       -1.5491952915        4.3181675556
 C        -9.5747717966       -0.4899825475        3.8731932442
 O        -9.5541287217       -0.0467769638        2.7382211400
 C        -8.5623751985        0.0759261121        4.8881436858
 C        -9.2730272213        1.1189044567        5.8543134696
 O       -10.1918733899        1.8070959243        5.4112555030
 C        -8.8178068169        1.2652666267        7.2652570881
 C        -8.0514829183       -1.1294096002        5.7848137743
 C        -7.4118358441        0.7499227557        4.1650117482
 C       -14.7579734303        0.9271243087        3.3121574645
 C       -14.4167124442       -1.2376663109        1.9929403999
 C       -10.6807538823        5.4077928898        1.3371560775
 C       -11.2879328752        4.9585834293       -0.9844190841
 C        -3.7686833218        3.3347013425       -2.5798198600
 C        -4.2037260159        2.9550608226       -0.2141492517
 C        -6.9716196973        9.2424932331       -3.9798493662
 C        -7.3521024690        9.4804732546       -1.4371323924
 C       -11.4779138532        3.7773267936       -4.6966292298
 C       -12.9462604250        4.5989629577       -6.5898434296
 H       -14.4582934126        7.1401748710       -4.3357351094
 H       -15.6146682985        5.8556392957       -3.8745254711
 H       -15.0008604676        5.8330452389       -5.5114252117
 H       -10.5570927931        5.8197752423       -3.4300836566
 H       -11.5759221091        7.1701167301       -3.3555884591
 H        -9.8851285821        8.2965762283       -4.9366032461
 H        -8.7357727448        7.1083315805       -4.6804639314
 H        -4.9059955187        8.0431286786       -1.0802736144
 H        -4.7855118653        8.0653869968       -2.9792179551
 H        -3.3708953662        6.3012894567       -2.3584046393
 H        -4.7251958997        5.6431236082       -3.2584622352
 H        -6.8004100950        3.8392362866        0.4330259639
 H        -7.2115900217        2.2238241838       -0.2051792034
 H        -8.9930042713        3.1602387886       -1.7128139174
 H        -8.6345571871        4.7721484683       -1.1378082347
 H       -12.4083725321        2.2906739197       -1.0501109536
 H       -13.6015105900        3.5567787834       -0.6683986630
 H       -14.2754720411        1.1532203026       -0.4652931365
 H       -14.7044675344        2.2749309176        0.9511332589
 H       -11.5602482389       -1.5854297938        2.3034587300
 H       -12.5013409522       -2.4105957366        3.4920288215
 H       -10.0399246803       -2.5010745822        4.4256012147
 H       -10.8793021456       -1.2900681726        5.3234608355
 H        -8.4391509198        0.3235486061        7.6040637769
 H        -9.6427814571        1.7074948512        7.8982032791
 H        -7.9989547516        2.0146142450        7.2233245479
 H        -8.6233868308       -1.6015102097        6.5730589329
 H        -7.0333864002       -0.9432170362        6.1561248059
 H        -7.9405555711       -2.0606967398        5.1866380299
 H        -7.7119731152        1.6664927453        3.6812360550
 H        -6.9357764759        0.1394577611        3.5117568264
 H        -6.5820726205        0.9432534228        4.8968626748
 H       -15.4121768700        1.3205944063        2.6167924441
 H       -14.2104268879        1.7025943194        3.8657148007
 H       -15.3026385965        0.3108761132        4.0072161935
 H       -13.9960920139       -1.6686142290        1.1121796397
 H       -15.4664246928       -0.9722054411        1.8515765190
 H       -14.4229599674       -1.9999728268        2.7255676037
 H        -9.8906828457        6.1106623410        1.0162944651
 H       -10.4407419464        4.9467082589        2.3395905197
 H       -11.5791859526        5.9964235102        1.4580822982
 H       -12.3062649960        5.3505366435       -0.8553149502
 H       -11.1371244293        4.2768510767       -1.7990030843
 H       -10.5965788037        5.8130430845       -1.1305462355
 H        -2.7697965165        3.6676702861       -2.5725043446
 H        -4.2307524809        3.7048822903       -3.4559007424
 H        -3.7347557003        2.2418262473       -2.7161149975
 H        -3.2595809648        3.3810806607        0.0238637184
 H        -4.0475456285        1.9509461256       -0.4523092210
 H        -4.8823091741        3.0436824118        0.6516689630
 H        -5.9347837022        9.5618108663       -3.7694669226
 H        -7.5090166765       10.1146694148       -4.2188194333
 H        -6.9342197803        8.5261511841       -4.8459231024
 H        -7.9244207030       10.4090388136       -1.5248256627
 H        -6.3021165935        9.7448373815       -1.3135789878
 H        -7.6168588577        8.9889837311       -0.4546826243
 H       -11.3653141089        3.9248939507       -3.5905296104
 H       -10.4003165711        3.6549433009       -5.0252175406
 H       -11.9588590509        2.8254533244       -4.9760990884
 H       -13.6316120985        3.8352428197       -6.4826037733
 H       -12.1499337963        4.2107116970       -7.2330842027
 H       -13.4319933290        5.4645596353       -7.0766142529
 Na      -10.5584160224        1.8782329617        3.0478080263
