117

 C       -14.5932528321        6.2601694553       -4.6269953285
 C       -13.5269139916        5.2280199521       -4.1892791358
 O       -13.4183663519        4.8634275888       -3.0361683040
 C       -12.4247940768        4.8751344453       -5.2447428880
 C       -11.6085186314        6.2552566438       -5.2804460102
 O       -11.4195831807        6.7731574862       -6.3573916941
 C       -11.0852195540        6.8011373483       -4.0035961878
 C        -9.6686891912        7.3849799179       -4.2226330409
 C        -9.0349952824        7.9054221268       -2.8902782053
 O        -9.6990888074        7.8587308909       -1.8840295832
 C        -7.5924192944        8.4462553550       -2.8771356836
 C        -6.7395174458        7.2155434237       -2.6105293392
 O        -7.1887156510        6.0757731110       -2.4901969301
 C        -5.2105260804        7.4266743383       -2.2797068683
 C        -4.4670795633        6.1118825750       -2.3755265161
 C        -4.5785612009        5.1033851654       -1.1496126010
 O        -4.6065583681        5.4034090322        0.0128726861
 C        -4.6437193114        3.5406253533       -1.5414706573
 C        -6.2336590822        3.1425290378       -1.6278496140
 O        -6.7310808405        2.8003803039       -2.6517645354
 C        -7.0393264307        3.3837470748       -0.3845984063
 C        -8.5051019503        3.7895021079       -0.6719290870
 C        -9.4303989336        3.6953036758        0.4935457739
 O        -9.2124077490        2.9231324247        1.4170574131
 C       -10.8647714502        4.5300063096        0.4353834380
 C       -12.0842167002        3.6398794513        0.8971257874
 O       -12.3691050326        3.5548026883        2.0793039756
 C       -12.8039509018        2.7454153290       -0.2204797022
 C       -13.7381139318        1.8382443778        0.4997135978
 C       -12.9726954247        0.7266677775        1.3513025626
 O       -11.8529070642        0.4647620483        1.0715694785
 C       -13.7809293072        0.0988033195        2.6236236896
 C       -12.6359677375       -0.3010555815        3.5910940658
 O       -12.2620346767        0.5943547336        4.3402454559
 C       -11.9279400706       -1.6396929461        3.6999607008
 C       -10.6675929031       -1.6202330782        4.6396669618
 C        -9.6069350081       -0.6039839274        4.1173676986
 O        -9.6106381700       -0.3079390055        2.9687553395
 C        -8.5437123659        0.0859342565        5.1427689031
 C        -9.2389136731        1.3718646695        5.6767632305
 O        -9.4781511449        2.3286488733        4.9660188103
 C        -9.4494768292        1.3134688583        7.1618574490
 C        -8.0540222334       -0.9317119721        6.1510188947
 C        -7.3910961667        0.5794698628        4.2503744444
 C       -14.8436703118        1.0962668370        3.2871534119
 C       -14.5532534623       -1.1438415698        2.2086578802
 C       -10.6888953353        5.6684912443        1.5368596922
 C       -11.1028867367        5.2329842291       -0.9594221299
 C        -3.8791206036        3.0566579086       -2.8210583606
 C        -4.0250153436        2.7247565300       -0.3929972688
 C        -7.1253727201        9.0085702880       -4.1908433099
 C        -7.4368555995        9.4975300917       -1.6996800376
 C       -11.5457933118        3.7010190568       -4.7180726494
 C       -13.0928670997        4.5427665084       -6.6443006453
 H       -14.3532989971        6.7267331468       -5.5883670828
 H       -14.5759126746        7.0874616876       -3.8893002060
 H       -15.4871418071        5.6878859146       -4.6922048633
 H       -10.9416003561        6.1148323872       -3.1730815841
 H       -11.7221178756        7.5928988720       -3.5669603344
 H        -9.6897004259        8.2297548714       -4.9463078883
 H        -9.1078405728        6.6614211931       -4.7738480849
 H        -5.1013954053        8.0475848052       -1.3705219779
 H        -4.9322157167        7.9715446826       -3.2103459714
 H        -3.4281779349        6.3347183830       -2.5103076578
 H        -4.7654450685        5.5896313651       -3.3008034332
 H        -6.4448534903        4.1466358491        0.1738922164
 H        -6.9465063175        2.4939727464        0.3214180962
 H        -8.7949472663        3.0718212858       -1.4792079336
 H        -8.4518013257        4.7460811017       -1.1845954117
 H       -12.0243907668        2.1975515891       -0.7665300073
 H       -13.3286875069        3.3845410768       -0.9737231482
 H       -14.3209087560        1.3377204048       -0.2918711885
 H       -14.3677319232        2.5535667808        1.1951437847
 H       -11.7336684657       -2.1723067527        2.7405582666
 H       -12.7122066237       -2.3593984023        4.1297174571
 H       -10.2780839623       -2.6465478440        4.5843307255
 H       -10.9530003144       -1.4927762031        5.7030334728
 H        -8.5017381391        1.5957992423        7.4776864230
 H        -9.6399114712        0.3284442490        7.4688528404
 H       -10.1411231952        2.0753753584        7.5564913041
 H        -8.9463147249       -1.4432519237        6.5592526122
 H        -7.4263885894       -0.5300348204        6.9301022668
 H        -7.5537677302       -1.8372440516        5.7395217989
 H        -7.7833565970        1.2279451540        3.4331896066
 H        -6.7672495533       -0.1567125829        3.7756408806
 H        -6.7358713102        1.2023155696        4.9228382361
 H       -15.5587531344        1.2677428489        2.5493012987
 H       -14.3673707606        2.0783239058        3.4690259971
 H       -15.1935993613        0.7153618869        4.2181848277
 H       -13.9186589321       -2.0204952395        2.1011966128
 H       -15.0345760171       -0.9026959206        1.2834480086
 H       -15.3017568797       -1.3906349603        2.9830197385
 H        -9.8031953304        6.2703319841        1.3399476192
 H       -10.5587337671        5.2768925342        2.5562070200
 H       -11.5797002384        6.3028245211        1.5412262674
 H       -12.0076617328        5.8348166957       -0.9056322316
 H       -11.2434484625        4.4833021975       -1.7629105379
 H       -10.2133612523        5.8605090948       -1.1758876783
 H        -2.8215048264        3.2524202851       -2.6927755039
 H        -4.1548577412        3.5635066441       -3.7497578830
 H        -3.8921015517        1.9359623517       -2.9718316179
 H        -2.9142227118        2.6253567211       -0.7312412577
 H        -4.3953327261        1.7129902914       -0.3491910234
 H        -4.0550497602        3.2165980001        0.6614534263
 H        -6.1238319771        9.4641588892       -4.1631497312
 H        -7.8105160701        9.7782065483       -4.4283715073
 H        -7.2577497221        8.2286947128       -4.9545631563
 H        -8.0042865820       10.3786110518       -2.0245274582
 H        -6.4191801874        9.8977310658       -1.6011825445
 H        -7.7005213379        9.0991224382       -0.6799865300
 H       -11.0073677289        4.0257356433       -3.8231173928
 H       -10.6360457715        3.5243066582       -5.3859128951
 H       -11.9983178566        2.7412921487       -4.4742404306
 H       -13.7693747585        3.7025912465       -6.7227233134
 H       -12.2303139394        4.2545845664       -7.3142083430
 H       -13.6498337738        5.3616892253       -6.9784122577
 Na      -10.6405436473        1.9516390689        2.9318604522
