117

 C       -14.6686877651        6.1518979332       -4.5166394819
 C       -13.5406863719        5.1435526952       -4.1746295228
 O       -13.4792932185        4.7377396094       -3.0325818682
 C       -12.4164817175        4.9528224841       -5.1690904935
 C       -11.5677577031        6.2692855145       -5.2888793034
 O       -11.6971287962        6.9367767962       -6.2857548996
 C       -10.8604774670        6.7658332297       -4.0376064923
 C        -9.5108397902        7.5342940130       -4.1684628877
 C        -8.9747454163        7.9334721876       -2.8019091903
 O        -9.6197151883        7.9092174526       -1.7863435286
 C        -7.5152858463        8.5439992976       -2.6702632156
 C        -6.6423793864        7.2567967813       -2.5081961846
 O        -7.1293765220        6.1308653060       -2.6989529885
 C        -5.1700233665        7.4423327378       -2.0763366227
 C        -4.4160883751        6.1910175201       -2.3559678348
 C        -4.7185969365        5.2538944436       -1.1594141876
 O        -4.9867139235        5.6297539364       -0.0570410283
 C        -4.6911081016        3.6436489763       -1.4608083583
 C        -6.2944213071        3.2457430548       -1.6131400693
 O        -6.6692596211        3.0055254736       -2.7535909439
 C        -7.1586382740        3.2454483102       -0.4165615332
 C        -8.5551016521        3.6639240735       -0.8543789526
 C        -9.5500045874        3.5600050968        0.2799754065
 O        -9.1893943939        2.9478041087        1.2629637516
 C       -10.8966115150        4.3824198662        0.3709070214
 C       -12.0318330557        3.4804093010        0.8458515003
 O       -12.1876166554        3.2324189502        2.0312190709
 C       -12.9316558020        2.7474702103       -0.1685659334
 C       -13.7706870232        1.6858919522        0.5131553255
 C       -12.9748897112        0.8314616520        1.4089936422
 O       -11.8469041865        0.5485193783        1.1776693052
 C       -13.7331307208        0.1230542065        2.5912857336
 C       -12.5868805661       -0.2543373928        3.5730897705
 O       -12.2635992597        0.6120133406        4.3898755857
 C       -11.8391098952       -1.6082535508        3.5164200435
 C       -10.5821140374       -1.6287762500        4.3709482900
 C        -9.5763912984       -0.5235234740        3.9365449814
 O        -9.4810638988       -0.1431399676        2.8022772501
 C        -8.5422559996        0.0260989181        4.9220421086
 C        -9.3562612156        1.2034116094        5.8012854901
 O       -10.1017103016        1.9480430576        5.2655734160
 C        -8.9783266295        1.3421577917        7.2386419690
 C        -8.0274871752       -1.1090808096        5.7846175587
 C        -7.4248768594        0.7226010148        4.1873118586
 C       -14.8046811818        0.9937924693        3.3455306026
 C       -14.3532003273       -1.1468466698        2.0510472721
 C       -10.6764888768        5.5009052916        1.4145969588
 C       -11.2964438475        4.9957397499       -1.0897270950
 C        -3.8290397521        3.2382085723       -2.7100937794
 C        -4.1044980829        2.8490115114       -0.2060247474
 C        -7.2057639548        9.1798757296       -4.0492997161
 C        -7.4001165735        9.5200813962       -1.4836292590
 C       -11.4737169317        3.8605951456       -4.6309727803
 C       -12.9571293142        4.5531334280       -6.5703665283
 H       -14.2463495626        7.1499963210       -4.7091186699
 H       -15.3621241766        6.1904270179       -3.6332673133
 H       -15.1669053895        5.7166854777       -5.3256201830
 H       -10.5492060928        5.8685952889       -3.4941300175
 H       -11.5419110687        7.2172965284       -3.3170109932
 H        -9.7119848505        8.3600659782       -4.8941096101
 H        -8.7840536706        6.9548060056       -4.7608494807
 H        -5.2604032643        7.6055810321       -1.0116672723
 H        -4.7813336758        8.3137238661       -2.6680689336
 H        -3.3371596609        6.3904640015       -2.3944991261
 H        -4.6420575626        5.6127759264       -3.3283607590
 H        -6.7444526738        3.9933942573        0.2920901622
 H        -7.0781395077        2.3058034032        0.0743582928
 H        -8.9138190541        3.0595857228       -1.6960060696
 H        -8.4137851733        4.6445888481       -1.2529292892
 H       -12.2375559029        2.3647863708       -0.8518545750
 H       -13.5923862021        3.4525185915       -0.6974036514
 H       -14.1311631656        1.0616656543       -0.2872084571
 H       -14.6829899477        2.1954251496        1.0563950632
 H       -11.5955541583       -1.8279603525        2.5142797142
 H       -12.5636104162       -2.4050854664        3.7379567189
 H       -10.0940734526       -2.5771330012        4.1909342361
 H       -10.7996723100       -1.6344330484        5.4359584564
 H        -8.2908896024        0.5015378648        7.4583921927
 H        -9.8790134823        1.3613615638        7.8761588690
 H        -8.4263259123        2.3686688961        7.3521059778
 H        -8.8247501679       -1.6004250987        6.3492221125
 H        -7.1801305955       -0.8978794284        6.3778206990
 H        -7.8030027854       -2.0055440912        5.2336426133
 H        -7.8078051157        1.5095042974        3.5588360013
 H        -6.9774026882       -0.0147710919        3.5156104129
 H        -6.5857000358        1.0061170756        4.7756339010
 H       -15.6421755713        1.2193679807        2.6612370223
 H       -14.3861059680        1.9064262814        3.7925230011
 H       -15.1006208467        0.3287785303        4.1495810089
 H       -13.5909500284       -1.6548525715        1.4657382991
 H       -15.2662434048       -1.0449425121        1.5659695908
 H       -14.4478657393       -1.8256690621        2.9480645983
 H        -9.8792005732        6.1880485175        1.1750903542
 H       -10.5249132376        5.0774614653        2.3832243655
 H       -11.6261689292        6.0948350253        1.4558727533
 H       -12.3074313917        5.2882167398       -1.0537356252
 H       -11.0446286389        4.3045851991       -1.9189889841
 H       -10.6847194860        5.8679327689       -1.2362143059
 H        -2.8788282586        3.6981137206       -2.8170004687
 H        -4.3436430917        3.4321400759       -3.6457049958
 H        -3.6003399718        2.1802501523       -2.6572434760
 H        -3.1719514705        3.2156994221        0.1251933345
 H        -3.9643659027        1.8849601114       -0.4974259796
 H        -4.7688498949        2.8473223861        0.5913179412
 H        -6.1793633639        9.5814442375       -3.9662246150
 H        -7.8460695882       10.0148606595       -4.3592806948
 H        -7.1738818699        8.3958478560       -4.7632445422
 H        -7.7842935203       10.5091404568       -1.7366019083
 H        -6.4357348721        9.6310063996       -1.0484392193
 H        -7.9862417473        9.1058864110       -0.6828556472
 H       -11.1506922830        3.9820599308       -3.6184611794
 H       -10.4844660616        3.7472065903       -5.1664942268
 H       -11.9830058924        2.9343050723       -4.8478920093
 H       -13.8330239073        3.8873682135       -6.4470337209
 H       -12.2528814074        4.0009567733       -7.2208802675
 H       -13.3176591606        5.4116613455       -6.9968854214
 Na      -10.5998334688        1.9301867682        3.0914814315
