117

 C       -14.7669167814        6.2156606219       -4.4630231386
 C       -13.5831228645        5.3304696144       -4.1847285727
 O       -13.4805103074        4.8052755317       -3.0841149427
 C       -12.4947949405        4.9083974591       -5.3357963146
 C       -11.5703029471        6.1763410878       -5.5532921587
 O       -11.2536209723        6.5522822124       -6.6712097520
 C       -11.1087211201        6.8299536744       -4.2120242407
 C        -9.6645454357        7.4548232625       -4.2428526243
 C        -9.1083862958        7.9623891939       -2.9317326562
 O        -9.7578217572        8.0336627851       -1.8963818185
 C        -7.5728288031        8.3919058147       -2.8613461094
 C        -6.5821905159        7.0621400618       -2.4980034719
 O        -7.1589257345        6.0212242626       -2.3865541533
 C        -5.1085756265        7.2367272542       -2.2419116821
 C        -4.3777548820        5.9043420674       -2.5735118065
 C        -4.4484364167        4.9885918189       -1.3298128661
 O        -4.5370678545        5.4904544503       -0.2224493781
 C        -4.6967585461        3.4922117720       -1.5475043098
 C        -6.2201091452        3.1742436933       -1.5548628088
 O        -6.7194797250        2.6521390322       -2.5352057206
 C        -7.0621812840        3.4897936994       -0.2737471260
 C        -8.4637653347        4.0154059272       -0.5934914813
 C        -9.3969135957        3.7349240611        0.5796935873
 O        -9.1155651449        2.9294471238        1.4605543327
 C       -10.7662150196        4.5282291721        0.5061114060
 C       -11.9277356067        3.5926375214        1.0033712016
 O       -12.3273300304        3.5810888443        2.1690778325
 C       -12.6667921260        2.7975389999       -0.1605980152
 C       -13.7225505615        1.7981430885        0.4504030801
 C       -13.0403522059        0.7838501580        1.4061589220
 O       -11.8568077144        0.5258958541        1.1243998099
 C       -13.7198674664        0.0956559131        2.6911479720
 C       -12.5883195490       -0.1830510348        3.6426401090
 O       -12.2039411707        0.7538201956        4.2999744003
 C       -11.9523320399       -1.5181380563        3.8176031601
 C       -10.7671300753       -1.3947566771        4.8178002141
 C        -9.6646441761       -0.5296984973        4.2104800824
 O        -9.7791957608       -0.2005932078        3.0203128171
 C        -8.5290172308        0.0617666157        5.1499944716
 C        -9.3150655672        1.3151008380        5.6741411918
 O        -9.3880553848        2.2857227652        4.9172868369
 C        -9.8846028189        1.6017270979        7.1293336296
 C        -8.1484138340       -0.9346924390        6.2457886790
 C        -7.3116769417        0.2707625544        4.2238166466
 C       -14.6443143448        1.1436024516        3.3402103373
 C       -14.5038454986       -1.2006162157        2.1394330968
 C       -10.5223782288        5.5646493028        1.6633449182
 C       -11.0759675156        5.2031564835       -0.8115829612
 C        -4.0638578700        3.0801801091       -2.9088344447
 C        -4.1647505399        2.6096869898       -0.3650346914
 C        -7.0951105893        8.8740945845       -4.3003238651
 C        -7.4058485529        9.5786658457       -1.8022222262
 C       -11.7112656299        3.7092893041       -4.8356214868
 C       -13.0649585070        4.5641013453       -6.6962402717
 H       -14.7436108699        6.6903657117       -5.4272490612
 H       -14.6879083333        6.9899548551       -3.7518278673
 H       -15.6430064095        5.5083576349       -4.4129883507
 H       -10.9805571748        6.1588345482       -3.3542742231
 H       -11.7781450648        7.6112121795       -3.8688228242
 H        -9.4063204150        8.1545071192       -5.0385501013
 H        -9.0144550858        6.5547998465       -4.4842408521
 H        -5.2216124556        7.2293101970       -1.1328642979
 H        -4.7166478773        8.1917589043       -2.6179027364
 H        -3.3329495510        6.1431507161       -2.9668017554
 H        -4.8876071028        5.2954843589       -3.3152732380
 H        -6.5526321407        4.2007645880        0.3647127795
 H        -7.1219036487        2.6259208839        0.3677314304
 H        -8.7761326325        3.7263555218       -1.5876075121
 H        -8.2838727684        5.0981310970       -0.6901139864
 H       -11.9494181138        2.2469542724       -0.8001040141
 H       -13.0760363461        3.5461712445       -0.8100492722
 H       -14.1825304759        1.1860883749       -0.3639656046
 H       -14.3729418346        2.3247142051        0.9933085154
 H       -11.6050728665       -1.8021084931        2.8273252931
 H       -12.6263383140       -2.2979248596        4.0082776077
 H       -10.3310091388       -2.3767429708        5.0190004317
 H       -11.1387401478       -1.0254342185        5.7609842233
 H        -9.2119894258        2.3541010294        7.6768722491
 H       -10.0560949934        0.6188188989        7.7034423851
 H       -10.7458067230        2.2039473803        6.8976678425
 H        -8.9467441462       -1.1513073735        6.9890917137
 H        -7.3528593482       -0.3837629683        6.8259339788
 H        -7.6673590618       -1.8637624053        5.9394963605
 H        -7.5574017163        0.9068514584        3.4195098114
 H        -7.0593396600       -0.6805153457        3.7501648673
 H        -6.4982752516        0.7288788947        4.7804055436
 H       -15.3806357980        1.4567740347        2.5899468959
 H       -14.0811078866        2.0152522331        3.5865606375
 H       -15.1485019349        0.7658061712        4.2335312293
 H       -13.9719139431       -1.6027234525        1.2907917434
 H       -15.4418669652       -0.7813827263        1.7190596287
 H       -14.7063287285       -1.9391495081        2.8489620760
 H        -9.6715531181        6.2406992183        1.4472012356
 H       -10.2285824902        5.0455513600        2.5948381045
 H       -11.4185504958        6.1430479515        1.8556459217
 H       -12.1726503809        5.3976941137       -0.8579341996
 H       -10.9297444714        4.4568305139       -1.5838878158
 H       -10.4936950957        6.1059951650       -0.9801173638
 H        -2.9898656495        3.2617189334       -3.0308244050
 H        -4.5742169841        3.5020728207       -3.7527789500
 H        -4.2193316991        2.0550127669       -3.0281246466
 H        -3.1692313486        2.5575983026       -0.2699801353
 H        -4.5616086504        1.6262587487       -0.4777011795
 H        -4.5639874813        3.0380651119        0.5133505207
 H        -6.0809750446        9.2033889657       -4.1766640335
 H        -7.6863595048        9.7128543950       -4.7358353528
 H        -7.1161630945        8.0474939517       -5.0083418481
 H        -8.2661538658       10.2441157483       -1.8188410710
 H        -6.5570221454       10.2498536994       -2.0401420031
 H        -7.2316188042        9.1944458003       -0.8141697588
 H       -11.2816915687        3.7746774533       -3.8013331847
 H       -10.9082164447        3.3708715827       -5.4425000579
 H       -12.4640034472        2.8718519941       -4.7182828163
 H       -13.5495227176        3.6143470400       -6.6590284357
 H       -12.3076665401        4.4723677561       -7.3964684192
 H       -13.9442663305        5.1910812453       -7.0436307932
 Na      -10.6701345866        1.8986648811        2.9160342494
