117

 C       -14.8293929071        6.1295591086       -4.5559163721
 C       -13.5831654852        5.2243261681       -4.2452759553
 O       -13.4637966880        4.7424426332       -3.1278982544
 C       -12.6061202116        4.9412214368       -5.3656320138
 C       -11.4877619847        6.1398248540       -5.4850730119
 O       -11.0305773372        6.3399822872       -6.5812473042
 C       -11.0261833900        6.9208454306       -4.2930442381
 C        -9.4999979106        7.3157541870       -4.4023396618
 C        -9.0015447868        7.9302516593       -3.0305007984
 O        -9.7958137850        8.0772644148       -2.1323411493
 C        -7.5098015179        8.3407134731       -2.9297743157
 C        -6.7805818502        7.0941083117       -2.5686353340
 O        -7.2658157299        5.9649408090       -2.3642962496
 C        -5.1679365908        7.3152682587       -2.3195798148
 C        -4.4139545769        6.0318641428       -2.6087721135
 C        -4.5590847784        4.9674008469       -1.4335098329
 O        -4.3879737515        5.3114023658       -0.2942712278
 C        -4.7448665662        3.3273391778       -1.6277166110
 C        -6.2953229913        3.0689131863       -1.5087447908
 O        -6.9654897207        2.6656787598       -2.4593349415
 C        -6.9773481998        3.5395250877       -0.2234585742
 C        -8.3882469205        4.1473367639       -0.4751553709
 C        -9.3907501372        3.7466704314        0.5294375292
 O        -9.1747389976        2.8495093587        1.3308842355
 C       -10.7105219191        4.5923707386        0.6901986890
 C       -11.8797961811        3.5915415238        1.0618875792
 O       -12.2223365839        3.2821857290        2.1861911148
 C       -12.6371643537        2.8854797611       -0.1094047284
 C       -13.6575781893        1.8076014541        0.4213642611
 C       -12.9418144992        0.8989457071        1.4536377763
 O       -11.8334137272        0.5256728613        1.2611816933
 C       -13.7097663815        0.1990458599        2.7371196236
 C       -12.6139074961       -0.0132190638        3.7764657462
 O       -12.1105754610        0.9104086416        4.4715286574
 C       -12.1440197443       -1.3968868019        4.0073910911
 C       -10.9069516338       -1.5177566296        4.8309852173
 C        -9.7804159914       -0.6277876465        4.3353146487
 O        -9.6733219057       -0.3308582665        3.1745929085
 C        -8.6718177451        0.0489364409        5.2395016418
 C        -9.3254878267        1.4421742068        5.5871880967
 O        -9.2575463657        2.3111973250        4.7522923245
 C        -9.9687921250        1.6021210532        6.9089272008
 C        -8.4093134980       -0.8755318782        6.4924324624
 C        -7.3445948603        0.3639783125        4.4659662180
 C       -14.7966759557        1.0841091268        3.2418724527
 C       -14.3619305014       -1.0427961012        2.0822520974
 C       -10.5310698777        5.6286841138        1.8124727988
 C       -11.0509841317        5.3194332555       -0.6672034818
 C        -4.1651877918        2.6572081083       -2.9035091406
 C        -3.9800957764        2.7858904313       -0.4342886542
 C        -6.9986549999        8.7669936992       -4.3522743103
 C        -7.2802487413        9.4421666873       -1.9221077438
 C       -11.7015683177        3.8169688271       -4.9643877861
 C       -13.3991671475        4.6980609334       -6.6853576273
 H       -14.6262053967        6.7656398204       -5.4328731547
 H       -14.9198529664        6.8615083348       -3.7132318861
 H       -15.6189975692        5.4921157374       -4.8118288191
 H       -11.0582970504        6.2867125168       -3.4007445515
 H       -11.4902632110        7.8899309207       -4.0820698111
 H        -9.3276662507        7.9802367760       -5.2604626557
 H        -8.9541362151        6.4227067542       -4.6186391077
 H        -5.0294784464        7.6592776276       -1.3252544781
 H        -4.8464781618        8.0520544258       -3.0737388956
 H        -3.3997774608        6.2944145288       -2.6532680141
 H        -4.6697851455        5.6209560331       -3.5906646040
 H        -6.3037513920        4.3038668723        0.2185264299
 H        -7.1120555889        2.8176259851        0.5763780444
 H        -8.8015207904        3.8536686224       -1.4665318257
 H        -8.3128102784        5.2260995882       -0.5685429008
 H       -11.9969101426        2.5831437033       -0.9296564004
 H       -13.2906929112        3.6919709590       -0.5799776859
 H       -14.0778933652        1.1995668175       -0.3494986499
 H       -14.4533504404        2.4794627537        0.9908883173
 H       -12.0038018900       -1.9574396473        3.0650719424
 H       -13.0233459480       -1.9578076193        4.5012493410
 H       -10.5470057400       -2.5594938946        4.7904931877
 H       -11.2172802636       -1.3359625000        5.8797475836
 H        -9.3006675206        2.2692067180        7.3707065723
 H        -9.9601835582        0.6939313997        7.3537665896
 H       -10.8890533668        2.1691211063        6.8329888932
 H        -9.2667494295       -1.1425803288        7.1366242249
 H        -7.6426389755       -0.6248698127        7.1773253889
 H        -7.9720622156       -1.7308109144        5.9647859541
 H        -7.4235164562        1.2037706106        3.7120106705
 H        -7.1055358668       -0.5513565064        3.8570317677
 H        -6.5932137969        0.6706064764        5.1825545582
 H       -15.6916193359        1.0831056660        2.5538867020
 H       -14.4201808015        2.1291102127        3.3420081835
 H       -15.2105810856        0.7184989449        4.2155736585
 H       -13.6683130642       -1.4407447862        1.3111515457
 H       -15.3063118300       -0.8239400821        1.6335594139
 H       -14.5467481343       -1.7932448411        2.9403817586
 H        -9.7046610780        6.2530338685        1.5845602455
 H       -10.3249380634        5.2176388899        2.7597813001
 H       -11.4249717857        6.2626638177        1.8488139166
 H       -11.9879346941        5.8093840228       -0.6309293456
 H       -11.1613018029        4.6147543978       -1.5010570040
 H       -10.3016566999        6.0946328556       -0.8468657065
 H        -3.3720544199        3.2338021601       -3.3370043613
 H        -4.9317013024        2.5816278883       -3.7006701494
 H        -3.8592078711        1.5868839840       -2.7792115017
 H        -2.8717515370        3.1022873816       -0.3458983154
 H        -4.0319036986        1.6056706211       -0.4322702665
 H        -4.4714206590        3.1628814691        0.4853950248
 H        -5.9442751445        9.0994524839       -4.2745336261
 H        -7.6242731652        9.5433234286       -4.7541692322
 H        -7.0095668624        7.9213908588       -5.0261116058
 H        -7.8501020196       10.3401507159       -2.1214050013
 H        -6.2418535225        9.6806022900       -1.8889746345
 H        -7.6055760751        9.0315189282       -0.9670066997
 H       -11.1967263459        3.8991262287       -4.0685362663
 H       -11.0309675553        3.5317414344       -5.7722133817
 H       -12.2893077126        2.9813981783       -4.7619720395
 H       -14.0811615873        3.7931304927       -6.4985722987
 H       -12.7655026072        4.4819588093       -7.6075251462
 H       -14.1134102411        5.4303893101       -6.9668753287
 Na      -10.4851128125        2.0736604882        2.8491865698
