117

 C       -14.8407497284        6.1575406702       -4.4949025024
 C       -13.6071713319        5.2637047746       -4.2074132617
 O       -13.4570057548        4.7563509946       -3.1027684259
 C       -12.6169403214        5.0020852234       -5.3451086143
 C       -11.5518382997        6.1254001953       -5.5668127184
 O       -10.9576695211        6.2360142385       -6.6234868362
 C       -11.0719932263        6.8591895741       -4.2626900104
 C        -9.5558915401        7.2451719102       -4.3815915779
 C        -9.0310075455        7.9739603865       -3.1732835745
 O        -9.7461647602        8.0941657043       -2.1944191166
 C        -7.5131996714        8.3494840597       -3.0712567505
 C        -6.7360541413        7.0764199139       -2.6055969047
 O        -7.2443190099        6.0255141241       -2.3986611809
 C        -5.1381191458        7.1429641115       -2.3888615973
 C        -4.4068777955        5.8307975795       -2.6478592592
 C        -4.5133565115        4.8866775117       -1.5095917821
 O        -4.4025625723        5.3291670495       -0.3659258349
 C        -4.7456432955        3.3267063166       -1.6360331859
 C        -6.3402899079        3.1430765645       -1.4594448427
 O        -7.0100726555        2.6963809201       -2.3937138734
 C        -6.9432753329        3.5591036284       -0.1654222755
 C        -8.3357415121        4.1743581892       -0.5136933090
 C        -9.3562604447        3.8194960185        0.5555847877
 O        -9.1449205487        2.8083693666        1.1988940346
 C       -10.7334145626        4.6096393644        0.7365604375
 C       -11.8302522881        3.6103677013        0.9921217683
 O       -12.1514852566        3.3463206559        2.1382611913
 C       -12.7292423424        2.9928678486       -0.0994678210
 C       -13.6403377546        1.8776567027        0.4896019503
 C       -12.8946845659        0.9634884469        1.4632494387
 O       -11.7390705255        0.5813583688        1.2884798063
 C       -13.7293771870        0.2918974593        2.6727167183
 C       -12.6546475703        0.0191611001        3.8476433966
 O       -12.1370169410        0.9901777255        4.4452968985
 C       -12.2232453848       -1.4483882666        4.1349483127
 C       -10.8299875381       -1.5500512856        4.8929697158
 C        -9.7413682293       -0.6815193520        4.2690117255
 O        -9.7654554214       -0.4135465385        3.0453351082
 C        -8.7092697601       -0.0285606342        5.2375757868
 C        -9.3298470057        1.4556420337        5.6707752106
 O        -9.2242857238        2.3159633649        4.8221464519
 C       -10.0443412508        1.7478534719        6.9797906357
 C        -8.4919595911       -0.7615338127        6.5875875608
 C        -7.3698152670        0.2900443723        4.6074638259
 C       -14.8724695590        1.2280085528        3.2099877929
 C       -14.3071993998       -1.0951270627        2.0935208397
 C       -10.6240553945        5.5549194152        1.8831988856
 C       -11.1117021238        5.3677673099       -0.6091014483
 C        -4.2532040489        2.7455762200       -2.9191732488
 C        -3.9108462512        2.6924330070       -0.4247763522
 C        -6.9427023734        8.7613923378       -4.4933421486
 C        -7.3725315738        9.4030385832       -1.9026170965
 C       -11.6782799309        3.7523034908       -5.0773575105
 C       -13.3046350470        4.7539434776       -6.6701349703
 H       -14.6167326068        6.9687461983       -5.1834415010
 H       -15.2468289818        6.5832021762       -3.5763550133
 H       -15.4415895055        5.4588108101       -5.0701671094
 H       -11.1950427033        6.2267794159       -3.3534148122
 H       -11.5061742074        7.8468417622       -4.1076762722
 H        -9.4124860689        7.7099267610       -5.3509092433
 H        -8.9735793267        6.3236913298       -4.3990771186
 H        -5.1195483922        7.3553492733       -1.3088057828
 H        -4.7182876187        8.0259827390       -2.9551416906
 H        -3.3494856863        6.0502199606       -2.7553481324
 H        -4.7394375545        5.3230513435       -3.5758523606
 H        -6.2676938485        4.2567692013        0.4723529311
 H        -7.1928207792        2.6986530061        0.5124571882
 H        -8.7183692733        3.8214505881       -1.4926225491
 H        -8.1827868705        5.2368215140       -0.6864166326
 H       -12.0113295667        2.5321695610       -0.7976981088
 H       -13.3220088744        3.6718203595       -0.7463849020
 H       -14.0410998901        1.1848504064       -0.3929027347
 H       -14.4658058314        2.3472627864        1.0252247276
 H       -11.9841431500       -1.9472604428        3.1521462579
 H       -13.1026834205       -2.0701657621        4.5352375694
 H       -10.4426666446       -2.5746311762        4.8112381286
 H       -10.9738790269       -1.3419061951        5.9630793564
 H        -9.3794315005        2.3909440594        7.5504452124
 H       -10.2710992631        0.8122547593        7.4518268915
 H       -10.8329607063        2.3369021070        6.7339013350
 H        -9.4298569945       -0.9346116820        7.1275830937
 H        -7.8784962611       -0.2643512007        7.3338323100
 H        -7.9276716579       -1.6311029055        6.3560029354
 H        -7.4512725725        1.0069815640        3.7959965990
 H        -7.0621272515       -0.6938887004        4.0909270663
 H        -6.6821405778        0.6893169457        5.3118606307
 H       -15.7252795863        1.3431475247        2.4767421973
 H       -14.5324548605        2.1665644942        3.5440333385
 H       -15.3709094214        0.6915065057        4.0126668299
 H       -13.4324663253       -1.7011362848        1.8222560537
 H       -14.9798440119       -1.0471393942        1.2404011481
 H       -14.8273003171       -1.5400637029        2.9600924674
 H        -9.7233181089        6.1424057604        1.7837068736
 H       -10.5311674220        5.0292673564        2.7990777080
 H       -11.4755601444        6.2482853051        1.9321414437
 H       -11.9533536099        6.0420729474       -0.5033481890
 H       -11.3694655319        4.7549134313       -1.4982139855
 H       -10.2895439362        6.0427484039       -0.7817642593
 H        -3.4247873783        3.4097441808       -3.2684078411
 H        -4.9626292755        2.6635525752       -3.7744132744
 H        -3.8990039717        1.7337269962       -2.8152528719
 H        -2.8796488291        3.0371430499       -0.4757196982
 H        -3.8878057309        1.5300549928       -0.3045697717
 H        -4.2837612583        3.1956545311        0.4996940139
 H        -5.9169647130        9.0839300432       -4.3662041484
 H        -7.5699160276        9.5909766408       -4.9164773514
 H        -6.9065713704        7.9536081532       -5.1660275829
 H        -7.6313170018       10.4636038851       -2.1292267727
 H        -6.3080254121        9.3304789835       -1.5776572999
 H        -8.0375735817        9.0748592028       -1.1188123680
 H       -11.0464710925        3.6984351627       -4.2003582773
 H       -11.1670470083        3.5430852718       -5.9750504048
 H       -12.3069012051        2.8563852831       -4.8967074028
 H       -14.1452255174        4.0199636829       -6.6792540890
 H       -12.6134008852        4.5292454515       -7.4119968543
 H       -13.7556668646        5.6973157301       -7.0596922192
 Na      -10.3870762671        1.9480249716        2.9625637319
