117

 C       -14.8324747222        6.1572164515       -4.5089016904
 C       -13.5989185724        5.2699545673       -4.2175778066
 O       -13.4736892241        4.7582831394       -3.1165595403
 C       -12.5959517564        4.8996561917       -5.3430479909
 C       -11.4772675277        6.1951545959       -5.5671673359
 O       -11.0932389861        6.4979104599       -6.6649790743
 C       -11.0590523863        6.8516888431       -4.2897391022
 C        -9.5900820551        7.3532013056       -4.3139718028
 C        -9.0853896701        7.9324043608       -2.9787172018
 O        -9.7961456385        8.0655308325       -2.0181772164
 C        -7.5058192814        8.3249999927       -2.8608655712
 C        -6.6971424124        7.0852488306       -2.4461965256
 O        -7.2034856772        5.9780562601       -2.3860702412
 C        -5.1719239366        7.2612052545       -2.2095434255
 C        -4.3993984827        5.9620219443       -2.6051876370
 C        -4.4769354284        4.9331516402       -1.3715074996
 O        -4.4709580820        5.4392126655       -0.2694660416
 C        -4.7203247564        3.4556208404       -1.5774203907
 C        -6.2567956215        3.2259892133       -1.6378921193
 O        -6.8122458878        2.5990004911       -2.4799882741
 C        -6.9915920514        3.5465486848       -0.2844507868
 C        -8.4212072485        4.1060439438       -0.4380532645
 C        -9.4168313614        3.6800993814        0.5793087206
 O        -9.1380201482        2.8729631305        1.4458590124
 C       -10.8116038275        4.5192985242        0.5768498660
 C       -12.0313145745        3.5912534782        1.0082468713
 O       -12.1946058854        3.4087650081        2.2053899974
 C       -12.7038199413        2.7870958478       -0.0726715152
 C       -13.7004002314        1.8064140290        0.4575043696
 C       -12.9613049940        0.8115147624        1.3775169377
 O       -11.7994336387        0.5074801730        1.1789599576
 C       -13.7308083169        0.2544730720        2.5977486886
 C       -12.6181271839       -0.0639230002        3.7023489538
 O       -12.1901977914        0.8321431295        4.3509674897
 C       -11.9970489461       -1.5357917896        3.9197916839
 C       -10.7997944262       -1.5034150012        4.8636361275
 C        -9.7134783910       -0.5451638936        4.2682963261
 O        -9.6979074280       -0.2432616418        3.1067831518
 C        -8.5912616826        0.0125956875        5.2041416652
 C        -9.2528922077        1.4605889051        5.6274237164
 O        -9.3576778628        2.3133183246        4.7746056136
 C        -9.9490953291        1.6109595007        7.0124994777
 C        -8.2533624236       -0.9749223920        6.3607834963
 C        -7.4114129293        0.2677114685        4.3597844298
 C       -14.8237413708        1.1586882884        3.3549245814
 C       -14.3619643943       -1.0729073646        2.1171348099
 C       -10.4743681793        5.6331007400        1.7260980753
 C       -11.0252688142        5.2667708703       -0.7047486943
 C        -4.1267028494        2.7874205281       -2.9323015696
 C        -4.0992870436        2.7157387621       -0.3735731093
 C        -7.0551964816        8.8669782531       -4.2673162086
 C        -7.2852014911        9.5318410624       -1.9409859797
 C       -11.7177029544        3.7164753927       -4.8634370873
 C       -13.2745036321        4.6525870642       -6.6617108115
 H       -14.6597551176        6.6712926508       -5.4549986082
 H       -14.7288761473        6.9521412760       -3.7996611268
 H       -15.7528057063        5.5569815832       -4.5896624254
 H       -11.2091584709        6.2982211717       -3.3649348314
 H       -11.5021065589        7.8441071674       -4.1554477690
 H        -9.5585634940        8.2208898386       -4.9874123190
 H        -8.8683766142        6.6477486033       -4.7571632518
 H        -4.9529233649        7.5966155495       -1.1949396320
 H        -4.9345063660        7.9598459130       -2.9636492828
 H        -3.3675015571        6.3693990395       -2.7344574651
 H        -4.6869390926        5.5380138919       -3.5240342374
 H        -6.4256211742        4.0907741676        0.3708512846
 H        -7.1273442153        2.6133069017        0.2339854751
 H        -8.7880638709        3.7266879184       -1.4034719261
 H        -8.3815907093        5.1897829853       -0.6237772674
 H       -11.9093240388        2.1513772287       -0.5276725310
 H       -13.0013321739        3.4207333571       -0.9109954225
 H       -13.8495372451        1.1761658566       -0.3537877396
 H       -14.6070129167        2.2307394134        0.8543217028
 H       -11.7441517871       -1.9483147693        2.9322233787
 H       -12.7270472706       -2.2209098189        4.2720300680
 H       -10.4065351269       -2.4890132521        5.1657176024
 H       -11.2521939146       -1.0651911743        5.7551680710
 H        -9.4206677642        2.2973584031        7.6260748428
 H       -10.0281822753        0.5993834446        7.4437625236
 H       -10.8875331123        2.1656650241        6.7610282292
 H        -9.0278496478       -1.2193587377        7.0886564436
 H        -7.4213336229       -0.5675646442        6.9501271744
 H        -7.7735777953       -1.8732201725        5.9112801312
 H        -7.6548497660        1.0780815594        3.6343998813
 H        -7.2013837695       -0.5491992365        3.7713620547
 H        -6.5557931295        0.6830003897        5.0035429021
 H       -15.7782858216        1.3081752846        2.8807058067
 H       -14.3554969340        2.1853504737        3.6052693241
 H       -15.0085812445        0.6162599281        4.3325258931
 H       -13.9022470927       -1.4547729182        1.1903757799
 H       -15.4432032568       -0.8585480155        1.8921276930
 H       -14.3519410182       -1.7725832898        2.9307690036
 H        -9.6573902060        6.2501868701        1.3674352090
 H       -10.0836235238        5.2160807616        2.6755757126
 H       -11.2964325898        6.2537663165        1.9205445056
 H       -12.0863069577        5.5502395076       -0.7662165533
 H       -10.9151161950        4.6107223589       -1.5205973942
 H       -10.3998920329        6.1667576597       -0.7804705828
 H        -3.2143533175        3.1517342807       -3.3598702581
 H        -4.8755784832        2.8663012014       -3.6941698453
 H        -4.0922922045        1.6939557907       -2.8216895489
 H        -2.9827039631        2.8708573128       -0.2824746150
 H        -4.2541005443        1.7350574229       -0.5780999492
 H        -4.5381138926        2.9622545056        0.6306031987
 H        -6.0504764258        9.2670610456       -4.1637863116
 H        -7.7082430592        9.6118758382       -4.6242654684
 H        -7.0139667084        8.0256749986       -5.0270673325
 H        -8.0825044240       10.2112533198       -2.0447551512
 H        -6.3989989107       10.0722972488       -2.1760346798
 H        -7.2307617581        9.1953244122       -0.8991904655
 H       -11.2945240947        3.8704037568       -3.8929103162
 H       -10.9131521461        3.4198090809       -5.5227905006
 H       -12.3162795608        2.8719452303       -4.6766338321
 H       -13.7522650247        3.6966859575       -6.5128084470
 H       -12.5309216796        4.4731597208       -7.5138738968
 H       -14.1562311085        5.2220237090       -6.9892423752
 Na      -10.5896639657        2.0466258273        2.8300432808
