117

 C       -14.5169118323        6.1657870035       -4.0988578076
 C       -13.3460943553        5.1604958979       -4.0890490932
 O       -12.9776945399        4.6631798445       -3.0209507772
 C       -12.6783467040        4.8632242122       -5.3861835356
 C       -11.2594470068        5.7420040765       -5.5979339057
 O       -11.1663356886        6.1190248225       -6.7475768505
 C       -10.3235835943        6.1039266898       -4.4272220039
 C        -9.2682061327        7.0963559954       -4.7583361125
 C        -8.7338270695        7.8195170369       -3.5150149231
 O        -9.3935178239        8.0138416563       -2.5326269428
 C        -7.2271320275        8.2028615896       -3.5199553661
 C        -6.5141963361        6.8236762722       -3.3627856368
 O        -7.1581925196        5.8520863573       -2.9185840495
 C        -5.0250767173        6.8151537964       -3.6084760153
 C        -4.4049288660        5.4573361161       -3.4334742740
 C        -4.5119446852        4.8528593746       -1.9660195868
 O        -4.4011997899        5.5435582485       -0.9814840375
 C        -4.7252864676        3.3110899617       -1.8516236592
 C        -6.3304644162        3.1817784560       -1.6324517556
 O        -7.0826527696        2.8361420870       -2.5398751391
 C        -6.8646147671        3.8466743313       -0.3463806469
 C        -8.4147696925        4.2796523519       -0.5645762668
 C        -9.3049377319        4.0595411532        0.6275094736
 O        -8.9844610223        3.1593395250        1.4050382924
 C       -10.6705776859        4.8044664696        0.8635924500
 C       -11.7571875621        3.7447418325        1.0840150707
 O       -11.8564907429        3.3653688428        2.2595020446
 C       -12.6007473367        3.1157377230        0.0206153447
 C       -13.5876494857        2.0382326602        0.5271366016
 C       -12.9375573782        1.0493016980        1.5286031126
 O       -11.8296226433        0.6203803497        1.1894066150
 C       -13.7374353046        0.4689178435        2.7400172382
 C       -12.7481703570        0.1419355015        3.8361730977
 O       -12.2810516090        1.0051091670        4.5309336909
 C       -12.5192593689       -1.3586276774        4.1860434575
 C       -11.4140254564       -1.3724274241        5.3691237639
 C       -10.1298440476       -0.6401136330        5.0218753304
 O        -9.8375797525       -0.5052358945        3.8489031888
 C        -9.2317082034        0.0520040077        6.1297205826
 C        -9.6646251439        1.5498406103        6.1585958133
 O        -9.7438015682        2.2555616209        5.1592374930
 C        -9.7654585056        2.1372085090        7.5443457509
 C        -9.4412774897       -0.7694269240        7.3729976354
 C        -7.7194843379        0.0693292319        5.7588466661
 C       -14.9112735391        1.4134589074        3.2259492108
 C       -14.3764575217       -0.8049096526        2.1609323362
 C       -10.4217927319        5.6698442625        2.1125024461
 C       -11.0779826358        5.7389834116       -0.3232254295
 C        -4.3558520864        2.5249530321       -3.1843077398
 C        -4.0221494862        2.7932238088       -0.6067667390
 C        -6.7791023168        8.9831510424       -4.7957811300
 C        -6.9960675220        9.2143457585       -2.3411479368
 C       -12.2112458914        3.3624488530       -5.2615631431
 C       -13.5560083121        5.0467088179       -6.6260875950
 H       -14.3942245948        6.8561778151       -3.2411561726
 H       -15.4732654828        5.6073013650       -4.1070381885
 H       -14.6069803528        6.7216503169       -5.0160971011
 H        -9.7944409946        5.2115179147       -4.0756241226
 H       -10.8949329691        6.4085508269       -3.5238340031
 H        -9.4273974693        7.9215619224       -5.4301698265
 H        -8.4406969065        6.5059699807       -5.1909742349
 H        -4.5084967645        7.5872687856       -3.0023782368
 H        -4.8069954195        7.2908828145       -4.5297625859
 H        -3.3318846023        5.4070584987       -3.6443092420
 H        -4.9277073115        4.8168165580       -4.0696030816
 H        -6.4068393649        4.7408164629       -0.0136680549
 H        -6.8233111626        3.1228645629        0.5329012816
 H        -8.9288274124        3.7804777928       -1.3745948073
 H        -8.4508099544        5.3414185532       -0.8726620023
 H       -11.8745897663        2.5583006968       -0.6435252640
 H       -13.1743943707        3.7033935274       -0.6944543646
 H       -13.9035926689        1.4948937719       -0.3117471256
 H       -14.6191063665        2.4561347605        0.9263984495
 H       -12.0190467910       -2.0783785290        3.4638917251
 H       -13.4393435188       -1.8348946922        4.6260889435
 H       -11.1204888412       -2.4184630995        5.5884347529
 H       -11.8883686651       -0.9939119733        6.2885778056
 H       -10.5824673069        1.5996901516        7.9998777678
 H        -9.8782438701        3.1621547033        7.5100223221
 H        -8.7987348518        1.9407316577        8.0182502106
 H       -10.3536883864       -0.5726796063        7.8616854609
 H        -8.5505673454       -0.7006984553        7.9652510492
 H        -9.7174594684       -1.7959907059        7.1088665814
 H        -7.7742237758        0.4080163176        4.6886326697
 H        -7.3270046407       -0.9423158332        5.8805015987
 H        -7.1011922078        0.6611973088        6.4577862266
 H       -15.7244920933        1.4875441157        2.5238372946
 H       -14.6055045010        2.4934043787        3.3193979109
 H       -15.1998352964        1.1454837870        4.2673378771
 H       -13.6464925392       -1.4337936667        1.6274330909
 H       -15.1771984337       -0.4835950336        1.4669885887
 H       -14.7658355603       -1.3660259005        3.0084732102
 H        -9.5833595773        6.3377045275        1.9131260523
 H       -10.1937433702        5.0418859508        2.9928547017
 H       -11.2714574139        6.2547442382        2.3877022197
 H       -12.0053716708        6.2449822506       -0.0812643748
 H       -11.1578071563        5.3761422938       -1.3044932717
 H       -10.3442643060        6.5292847108       -0.4589445354
 H        -3.3704067217        2.7726755755       -3.5168961067
 H        -5.0326098053        2.8457170747       -3.9390501929
 H        -4.3889154887        1.4406981987       -3.0509006452
 H        -2.9485743096        2.6954068454       -0.9160672178
 H        -4.4582297086        1.7335157525       -0.2091600802
 H        -4.0009575437        3.5037979663        0.2420465220
 H        -5.8722368290        9.5636948059       -4.6614707618
 H        -7.5409226326        9.6769655669       -5.0486434992
 H        -6.6443153562        8.2948145291       -5.6885897563
 H        -7.1294725071       10.1560359530       -2.8012306515
 H        -5.9791315356        9.1216593132       -2.0629728755
 H        -7.6521746659        9.0347932704       -1.4723042859
 H       -11.6900468764        3.2143259968       -4.3618386175
 H       -11.3810350347        3.1667305521       -5.9525264690
 H       -12.9413434805        2.6474024934       -5.4032449745
 H       -14.5000894910        4.4658208445       -6.7409660937
 H       -12.9138500945        4.6969179953       -7.5412350590
 H       -13.8400329249        6.0718510292       -6.6823014839
 Na      -10.2333175148        1.6209057396        2.8591287380
