117

 C       -14.4811310391        6.2078181762       -3.9935408365
 C       -13.3399178072        5.1383147753       -4.0382383835
 O       -12.9172791000        4.6617091154       -2.9999806943
 C       -12.6259078870        4.8317582244       -5.3910853932
 C       -11.4067013651        5.7512391313       -5.6078895395
 O       -11.0915977974        6.1609574134       -6.6923681387
 C       -10.3767821619        6.0069295913       -4.4676491839
 C        -9.2328016674        7.0089483558       -4.8465979224
 C        -8.6723204217        7.7844352474       -3.5832220672
 O        -9.3730557801        7.9438488923       -2.5900353176
 C        -7.1918039634        8.2268161049       -3.5485335632
 C        -6.4689744595        6.8778623080       -3.3508803394
 O        -7.0469108184        5.8698002085       -2.9974757746
 C        -4.9724794631        6.7813827506       -3.6844784026
 C        -4.3452828384        5.4291523895       -3.5280447618
 C        -4.4207979396        4.9214691160       -2.1391745646
 O        -4.4063710876        5.6012475467       -1.1293354213
 C        -4.7762250890        3.3350417533       -1.9193842362
 C        -6.3303067448        3.3285593536       -1.7785126749
 O        -7.0496379519        2.7365850076       -2.5892028532
 C        -6.9633549491        3.8619626121       -0.4569218060
 C        -8.3832336175        4.3289467822       -0.5817097240
 C        -9.2789264078        3.9704208602        0.6024563475
 O        -8.9819857045        3.1667255389        1.4724784913
 C       -10.6516830573        4.8068881475        0.8523710024
 C       -11.7619868995        3.7410066493        1.1471070674
 O       -11.8434780062        3.3142006412        2.2969990028
 C       -12.5925065072        3.0810888012        0.0102140443
 C       -13.6327842701        2.0007252469        0.5596285793
 C       -12.8960140935        1.0798712135        1.5560227713
 O       -11.7700183476        0.6469473772        1.3804341178
 C       -13.8189742455        0.4604063333        2.6890111731
 C       -12.8937878650        0.1076649329        3.9474394999
 O       -12.3641930318        1.0419140230        4.5806726853
 C       -12.4248179406       -1.3055272427        4.1673143754
 C       -11.4875362806       -1.3951306832        5.4115970822
 C       -10.2044298184       -0.6018155799        5.0080556989
 O        -9.7936418386       -0.4488603240        3.8752220410
 C        -9.3964983328       -0.0019129401        6.1715689455
 C        -9.6689672917        1.5769019420        6.2711264741
 O        -9.7294803852        2.2666195920        5.2580540146
 C        -9.6851256275        2.2478772521        7.6517332954
 C        -9.5725889285       -0.7831165577        7.5251293181
 C        -7.8333696858        0.0103720855        5.6985458234
 C       -14.8672409009        1.4108528191        3.2105367557
 C       -14.4933222746       -0.7605396166        2.0002210539
 C       -10.4905727848        5.6041244136        2.1705826464
 C       -10.9860607854        5.7877281999       -0.3761975542
 C        -4.4040019831        2.4151573856       -3.0647660419
 C        -3.9992179045        2.8052914671       -0.6482324245
 C        -6.8058162124        9.0330991869       -4.8201017624
 C        -6.8922742159        9.1553974467       -2.3068929023
 C       -12.1431776166        3.3147097663       -5.3055811379
 C       -13.6514958994        4.9618050733       -6.5823201529
 H       -14.4731178649        6.6305839178       -2.9821218451
 H       -15.4656917976        5.8576974609       -4.3856715365
 H       -14.2480595972        6.9640016695       -4.7014787830
 H       -10.0181478554        5.0313059955       -4.1622463699
 H       -10.7438661890        6.4160777182       -3.4919963273
 H        -9.5739926454        7.8944451503       -5.4000785869
 H        -8.3954741806        6.6320086573       -5.4368595344
 H        -4.2875256432        7.5149276450       -3.2279557335
 H        -4.8672725326        7.2081654171       -4.6937260150
 H        -3.2652990820        5.4635371922       -3.6411761924
 H        -4.7915746823        4.6271275278       -4.2160643457
 H        -6.5085269541        4.6923080627        0.1766204984
 H        -7.0377401258        2.9385343372        0.2268879025
 H        -8.9084682934        3.8743178796       -1.4175638661
 H        -8.4264495940        5.3958099655       -0.8271999155
 H       -11.8832560398        2.5647213996       -0.6522212640
 H       -13.1678055109        3.7392214528       -0.6775882399
 H       -14.1688582720        1.4550399345       -0.1659811399
 H       -14.3871415479        2.4624228047        1.1189013037
 H       -11.7667675115       -1.6550823724        3.3747858376
 H       -13.2471716385       -2.0500133383        4.3616888716
 H       -11.3235116359       -2.4339641375        5.7343439847
 H       -12.0155606018       -0.8951794153        6.2465750079
 H       -10.7900755146        2.2417908584        7.8640798807
 H        -9.2441072938        3.2374200979        7.6510147604
 H        -9.1291780693        1.6680175947        8.3094068157
 H       -10.5382717718       -0.5041107423        7.9794308292
 H        -8.7256629492       -0.4519329133        8.0653650679
 H        -9.7398124236       -1.8483179915        7.5270924363
 H        -7.7792487825        0.3047593398        4.6410074138
 H        -7.3758192886       -1.0253602401        5.9684873468
 H        -7.3263268689        0.6535130208        6.3496850987
 H       -15.6866154011        1.7810449871        2.4966312189
 H       -14.4384266814        2.3437604102        3.5283343822
 H       -15.2759682035        0.9824747547        4.1475965564
 H       -13.7593101561       -1.1994661243        1.2952010676
 H       -15.3097580161       -0.3842247020        1.4354139617
 H       -14.8063256851       -1.5773319278        2.7385412612
 H        -9.7629462875        6.3753437178        2.0982630643
 H       -10.2868990762        4.9989089323        3.0014192807
 H       -11.4811011758        6.0563522463        2.3618409325
 H       -11.8397868853        6.3933218718       -0.2535488570
 H       -11.1560494681        5.2449018322       -1.3254485214
 H       -10.1723003399        6.4282484998       -0.6879859457
 H        -3.4879756763        2.7230360396       -3.5409288638
 H        -5.2228692286        2.3535988735       -3.8073854084
 H        -4.2021304921        1.4028011850       -2.6367179902
 H        -2.9679947412        2.7790616877       -0.9206664784
 H        -4.3303479934        1.8437956792       -0.2660413230
 H        -4.0454144351        3.5696274578        0.1916581712
 H        -5.9210601366        9.6759985466       -4.6263647734
 H        -7.6105189607        9.6745043702       -5.1467658242
 H        -6.5652144570        8.3866118919       -5.6568305530
 H        -7.0043130802       10.1263823243       -2.7505956522
 H        -5.9129373819        9.0390963372       -1.9135117644
 H        -7.6033113089        8.9321703965       -1.5398902333
 H       -11.5754399958        3.1060015860       -4.4522192873
 H       -11.4168112424        3.1647189583       -6.0629565493
 H       -12.9435783796        2.6144983059       -5.3928049249
 H       -14.6453224864        4.4404923950       -6.4966606317
 H       -13.2230946636        4.5845214666       -7.4783242522
 H       -13.9492213513        5.9849197843       -6.6275714210
 Na      -10.2039654023        1.7189852693        2.8797744353
