117

 C       -14.7670286891        6.1540374636       -4.4716143809
 C       -13.5210779453        5.2230542532       -4.2299702534
 O       -13.2388873025        4.7991758434       -3.1138747677
 C       -12.6220016510        4.9040574483       -5.4308943934
 C       -11.4822921033        6.0410336353       -5.5336454241
 O       -10.9802585528        6.2256167483       -6.6153066816
 C       -10.9901181128        6.8510648546       -4.3378983014
 C        -9.4156933230        7.1129085280       -4.4121626417
 C        -8.9555519586        7.8864833316       -3.2003246487
 O        -9.7207325330        8.1490844045       -2.3075198632
 C        -7.4837460241        8.3416752292       -3.1607700328
 C        -6.6926658917        6.9923641589       -2.7932541664
 O        -7.2174943240        5.9062491459       -2.5909803764
 C        -5.1656585147        7.0893789659       -2.6863842282
 C        -4.6023980745        5.6607099957       -2.8282791650
 C        -4.4606028691        4.8365775464       -1.4528833111
 O        -4.4557825014        5.4552305119       -0.4125638278
 C        -4.6574033911        3.3249388528       -1.5979778503
 C        -6.2449567700        3.1665017921       -1.4437340480
 O        -6.8581882629        2.7049023944       -2.3797460503
 C        -6.9599492795        3.6459764680       -0.1229742616
 C        -8.3197260673        4.2987201639       -0.2935597446
 C        -9.4485206853        3.8174409996        0.5442511977
 O        -9.3370552395        2.8351241952        1.2571858083
 C       -10.7778648804        4.6782514263        0.6942446778
 C       -11.9554408496        3.6143731359        1.0282431974
 O       -12.1180398311        3.3047519620        2.2011798251
 C       -12.6791614656        2.9316749838       -0.0712625952
 C       -13.6982683773        1.9069820677        0.4651957094
 C       -12.8891099094        1.0372617971        1.4479624677
 O       -11.7103783406        0.8236910086        1.2871006312
 C       -13.6853793477        0.2528860930        2.5849749074
 C       -12.6442746346        0.0515377423        3.8139677040
 O       -12.1553073301        0.9462238185        4.4808165871
 C       -12.2667735928       -1.3683131048        4.1604767524
 C       -11.0332399543       -1.4725495199        5.0612743925
 C        -9.8827103129       -0.6013743995        4.5140535674
 O        -9.5949702920       -0.5166624784        3.3550418461
 C        -8.8741261690        0.0859268183        5.4860879530
 C        -9.3569500942        1.5629421360        5.7018630909
 O        -9.1906680485        2.4504629372        4.8778025724
 C       -10.0852617353        1.7830624036        7.0644525643
 C        -8.6631538582       -0.7668614605        6.7258077384
 C        -7.4349718817        0.1465702526        4.6647437789
 C       -14.7291197225        1.1983406672        3.2494791982
 C       -14.4478471059       -1.0355365463        2.0246472455
 C       -10.4746794822        5.5538254423        1.8775862268
 C       -11.0082603832        5.5653888946       -0.5092919718
 C        -4.2929708928        2.8115972544       -3.0253210823
 C        -4.0559266451        2.4488681866       -0.5348269357
 C        -6.9643763436        8.8807872813       -4.4748871527
 C        -7.2233843559        9.4715632492       -2.1155910223
 C       -11.9691133953        3.5213494759       -5.0831518787
 C       -13.3743275718        4.8574631583       -6.7807652254
 H       -14.4599491298        7.2053448157       -4.3807631010
 H       -15.4010868476        5.9147428737       -3.6054576110
 H       -15.2106877720        6.0240334571       -5.4368594988
 H       -11.1042443536        6.2049241713       -3.4733463537
 H       -11.6382779539        7.7682245768       -4.2588090135
 H        -9.2036227315        7.7287204683       -5.3086866630
 H        -9.0152286252        6.1114574901       -4.6252921053
 H        -4.8965685680        7.5695840114       -1.6911910913
 H        -4.8597038862        7.7868600420       -3.4721052326
 H        -3.5762498949        5.6384280010       -3.2911626863
 H        -5.2737619677        5.1240084732       -3.5163836460
 H        -6.3802142272        4.3735202731        0.3524696764
 H        -7.0170077779        2.8618297636        0.6263965953
 H        -8.6820796846        4.2064182334       -1.3238043193
 H        -8.1500071883        5.3818376540       -0.2351921470
 H       -12.0079437274        2.5205999965       -0.8198380284
 H       -13.2102202235        3.7095257408       -0.6150414031
 H       -14.0154879130        1.3087090595       -0.2630265279
 H       -14.5903631179        2.4199341666        0.8966822985
 H       -11.9651347241       -1.9295014295        3.3148156408
 H       -13.0494358183       -1.9257417946        4.5970931496
 H       -10.8028539338       -2.5337306418        5.0375300784
 H       -11.3014588203       -1.2295221168        6.0802245585
 H        -9.3179597883        1.9433686327        7.8507173004
 H       -10.7348446727        0.8935290126        7.2368493209
 H       -10.7151057816        2.7712690774        6.9810642034
 H        -9.5817211623       -0.8161026130        7.2674875209
 H        -8.0243940958       -0.2563942135        7.4262836540
 H        -8.1241640252       -1.7022159941        6.4624940544
 H        -7.6085397580        0.5147767895        3.6606315793
 H        -7.0255344697       -0.8237431759        4.6654011032
 H        -6.8110140850        0.8977281047        5.1364586322
 H       -15.5609747501        1.4670658161        2.6697016792
 H       -14.1690837549        2.0673427161        3.5903176343
 H       -15.2019875223        0.7586619202        4.0967189078
 H       -13.7557024260       -1.7583411602        1.6620148698
 H       -15.0112610921       -0.6315310355        1.2168254343
 H       -15.1562566668       -1.3885376812        2.7557933716
 H        -9.6525867978        6.2705216716        1.6971443650
 H       -10.1452933193        4.9165614995        2.7368893261
 H       -11.3346405989        6.1614974629        2.1881894384
 H       -11.9669261588        6.1051364655       -0.4916229164
 H       -11.0664401826        4.9980892297       -1.4399054627
 H       -10.2711025776        6.3959552817       -0.5852537516
 H        -3.2829090773        3.0320742864       -3.2423107217
 H        -4.8659383280        3.2836978638       -3.7941410563
 H        -4.4908958527        1.7365321982       -3.1666086145
 H        -3.0468426607        2.3580434240       -0.8368378986
 H        -4.4491123614        1.4518139141       -0.5961201473
 H        -4.0609559013        2.7778945008        0.4106726996
 H        -5.9259280849        9.2191160463       -4.4019409872
 H        -7.5709249083        9.6647929707       -4.8374833824
 H        -6.9248382244        8.0246432686       -5.2018662018
 H        -7.4247692483       10.3823503751       -2.6798178217
 H        -6.1967723878        9.5096637050       -1.7503592373
 H        -8.0504033378        9.5296486258       -1.3548622219
 H       -11.5607048957        3.6501205563       -4.0587523596
 H       -11.0866411626        3.3258961616       -5.8018056117
 H       -12.4642085152        2.5593841988       -5.0104066492
 H       -14.1782857972        4.1606656086       -6.9041953182
 H       -12.6821739082        4.7642681656       -7.6598710523
 H       -13.6715975811        5.8249561968       -6.9879985323
 Na      -10.2505883515        1.6836444423        2.9812817450
