117

 C       -14.6018344750        6.1735700809       -4.0813192282
 C       -13.3504681558        5.2624622389       -4.0496015287
 O       -13.0761251489        4.7414726276       -2.9721154935
 C       -12.5747779363        4.8755406846       -5.4526309670
 C       -11.3066866087        5.7788835131       -5.6406403570
 O       -11.0304230512        6.1846767306       -6.7446184920
 C       -10.4694240262        6.0604339407       -4.4400173181
 C        -9.3924199973        7.1202353671       -4.7686272452
 C        -8.8731599469        7.9144544763       -3.4773238689
 O        -9.5660496450        8.0390825398       -2.4962943100
 C        -7.2908671771        8.3308505937       -3.4862701009
 C        -6.5030434138        6.9320864613       -3.1912600937
 O        -7.1361753390        5.9331966594       -2.9247537191
 C        -5.0060679970        6.8432372901       -3.4057097163
 C        -4.4205358670        5.4481317399       -3.3443840361
 C        -4.5441365112        4.7632078716       -1.8881722996
 O        -4.4127417012        5.5046077147       -0.9190797481
 C        -4.7818406646        3.3108939769       -1.7977845126
 C        -6.4092466479        3.2512952923       -1.5556646145
 O        -7.0688570734        2.8444380955       -2.4705956287
 C        -6.8718726425        3.8292859086       -0.2661320628
 C        -8.3670818100        4.2862072275       -0.5708168999
 C        -9.3122028472        3.9510376215        0.6042422504
 O        -9.0407288180        3.0946061746        1.4258075146
 C       -10.6111761121        4.8704842927        0.8364773752
 C       -11.7679761655        3.6953458801        1.1734688862
 O       -11.9872164187        3.2925314475        2.2979366626
 C       -12.5215545535        3.1536291110       -0.0390993835
 C       -13.5585114107        2.1948123888        0.4277455138
 C       -12.9683991824        1.0560279561        1.3792709596
 O       -11.8625547176        0.6013964645        1.1658364046
 C       -13.7228377211        0.4145944375        2.6418782381
 C       -12.6845332995        0.1523880847        3.8995961448
 O       -12.1248366953        1.0527478659        4.4603713983
 C       -12.4856811009       -1.2908406457        4.3455668628
 C       -11.2965593903       -1.4265337831        5.3433198288
 C       -10.0900198982       -0.6460212698        4.8494317946
 O        -9.8213976608       -0.5451982988        3.6477701532
 C        -9.1630743764       -0.0359814464        5.9754892508
 C        -9.6211088599        1.5281452470        6.0836489701
 O        -9.7671873539        2.1733733693        5.0865786455
 C        -9.8642405853        2.1509447064        7.5519401391
 C        -9.2787266322       -0.7421844244        7.4314033937
 C        -7.6773968161        0.0414236836        5.6660294967
 C       -14.7844113260        1.3928831774        3.2383183033
 C       -14.4099808176       -0.9484364935        2.2106108738
 C       -10.3580589547        5.7374163057        2.0297838167
 C       -11.1085610038        5.7174598947       -0.3553934308
 C        -4.3490190915        2.5872330340       -3.1214915496
 C        -4.0476946446        2.7126732312       -0.6166929114
 C        -6.8166903582        8.8029067369       -4.8710025691
 C        -7.0153984202        9.2107503536       -2.2558529740
 C       -12.1692974246        3.3345419133       -5.3112873149
 C       -13.3782577631        5.0369532644       -6.6739246643
 H       -14.5369678058        6.9998062009       -3.3773418749
 H       -15.4011577069        5.4915576645       -3.8718978540
 H       -14.8892526168        6.5445047040       -5.1151408815
 H       -10.1105163483        5.1643406617       -3.8802953801
 H       -11.1640741877        6.5428685984       -3.7548337587
 H        -9.7845596068        7.9215863022       -5.4214758527
 H        -8.5645494079        6.6429638394       -5.3232546665
 H        -4.4726777924        7.5361449752       -2.7914560887
 H        -4.7282572922        7.3231477230       -4.3351931943
 H        -3.3758007038        5.4231946446       -3.6679502548
 H        -5.0139968667        4.8885949641       -4.0003050548
 H        -6.3107448650        4.6366057994        0.1332892783
 H        -6.9217969615        3.1065703042        0.4929321814
 H        -8.6929245328        3.7480807968       -1.4797056553
 H        -8.4662492806        5.3283658617       -0.8708565329
 H       -11.9065152984        2.8170247776       -0.8915225456
 H       -13.1454383344        3.9324769313       -0.4772801684
 H       -14.1649871507        1.7181087923       -0.4537599578
 H       -14.3807119723        2.7413417370        0.9479163330
 H       -12.0960743906       -1.9537735740        3.5505766387
 H       -13.3763886835       -1.7174039109        4.7884173827
 H       -10.9733086585       -2.4647155147        5.4967580823
 H       -11.6426033129       -1.0689552913        6.3096618335
 H       -10.2641487983        1.4164991389        8.1892372159
 H       -10.4379369794        3.0476347453        7.3142785515
 H        -8.9075012262        2.5872005283        7.9000457439
 H       -10.2699445451       -0.7537878759        7.7935206129
 H        -8.4827910023       -0.3410710046        8.0845521258
 H        -9.1983336893       -1.7936804493        7.2629048872
 H        -7.6150682712        0.5757152583        4.7276507656
 H        -7.2353446104       -0.8954895864        5.6730331832
 H        -7.1674009873        0.5290454024        6.5728884626
 H       -15.6306529413        1.4676099571        2.6247095502
 H       -14.4558735878        2.4547911208        3.3313774989
 H       -14.9926134185        1.1195126950        4.2614495203
 H       -13.6793241703       -1.7303363751        2.1322430269
 H       -15.0164320907       -0.9053800546        1.2658000706
 H       -14.9934399115       -1.1656544180        3.0457590846
 H        -9.4554751629        6.3852501661        1.9178594650
 H       -10.2023464694        5.0117004207        2.8730030665
 H       -11.1789960692        6.3639468210        2.3363708966
 H       -12.1120017114        6.0714599216       -0.0575000362
 H       -11.1302106737        5.3388152947       -1.3499777539
 H       -10.5446496580        6.6226393328       -0.5265233613
 H        -3.2961423757        2.8663243668       -3.2475975261
 H        -4.8345403781        3.0094062198       -3.9583517906
 H        -4.3730388638        1.5521473615       -3.1087364650
 H        -2.9033289841        2.6540911880       -0.8623026128
 H        -4.4639807125        1.7598303980       -0.3109077765
 H        -4.1016753000        3.3831234124        0.2648665741
 H        -5.7624483161        9.0065499628       -4.8931752146
 H        -7.2899290401        9.7733853015       -5.1361687251
 H        -7.0420758253        8.0657105096       -5.6426988008
 H        -7.4273471928       10.2206232599       -2.3034165732
 H        -5.9090208673        9.2014945250       -2.1972894849
 H        -7.4002224823        8.6387367225       -1.4093145927
 H       -11.6239420642        3.0903442602       -4.3774245326
 H       -11.4755079339        2.9421623479       -6.0401249459
 H       -13.0897606640        2.7291533043       -5.4162504550
 H       -14.3185860221        4.4916751422       -6.6765861849
 H       -12.8696877412        4.6459866749       -7.5625720186
 H       -13.6373421695        6.1657513550       -6.7390495118
 Na      -10.2586204399        1.5794629536        2.8641157121
