117

 C       -14.0427439371        6.2628124135       -3.6076612347
 C       -13.0553171749        5.1375805291       -3.8685351284
 O       -12.6143223056        4.5305218418       -2.9061393701
 C       -12.5461823415        4.7149194683       -5.3183065090
 C       -11.3894692280        5.7186056185       -5.6762924377
 O       -11.4154164668        6.4135696227       -6.6568794928
 C       -10.4582591322        6.0972203626       -4.4669889493
 C        -9.2065071973        6.7806071464       -4.9096594339
 C        -8.5952282558        7.4775713292       -3.6440922509
 O        -9.3161469079        7.7279216614       -2.6978061635
 C        -7.1423942165        8.0177999687       -3.6716758749
 C        -6.3106335607        6.7003074219       -3.6240751098
 O        -6.8498106225        5.7609574716       -3.1106900356
 C        -4.8742053974        6.6349345399       -4.1892764755
 C        -4.1956441624        5.2364290135       -3.9519149435
 C        -4.3969653362        4.9554264374       -2.4730528481
 O        -4.2795693024        5.7965701811       -1.6136169692
 C        -4.8054591357        3.3835282263       -2.0874252046
 C        -6.3852494315        3.3531545045       -1.8493533651
 O        -7.0761877582        2.7823673649       -2.6272261374
 C        -6.9676194918        3.8236918769       -0.5552250212
 C        -8.4632662800        4.1847671060       -0.5854574590
 C        -9.2709696510        3.8782770467        0.6420552062
 O        -9.0101825824        3.0923240295        1.5169682160
 C       -10.5999216600        4.7072458089        0.8384099861
 C       -11.7326603913        3.7293778457        1.2364533876
 O       -12.0513627987        3.5493427316        2.3832363977
 C       -12.3866377908        2.9542400591        0.0882296200
 C       -13.5237301147        2.0076041723        0.4055178958
 C       -12.9712612026        1.0959920824        1.6093975948
 O       -11.8065754925        0.8204393339        1.6952746471
 C       -13.9486868154        0.4787628290        2.6898993000
 C       -12.9867701736        0.1126831012        3.9394601765
 O       -12.6969404618        1.0148048975        4.7230279667
 C       -12.4535351259       -1.2806240166        4.1050939253
 C       -11.4722879939       -1.4019036509        5.2626828358
 C       -10.3629979779       -0.3526051079        5.0705415188
 O        -9.9839360417       -0.0575464086        3.9664166296
 C        -9.5555799908        0.0719685205        6.3244479585
 C        -9.6704920294        1.6667545770        6.5025082421
 O        -9.7356115399        2.3118167881        5.4816228151
 C        -9.5093179399        2.2774717996        7.8847765755
 C       -10.0706184049       -0.5662882336        7.6530927969
 C        -8.1038265705       -0.1593261726        6.1626246137
 C       -15.0127896608        1.5303699855        3.0537882041
 C       -14.6445090879       -0.7687378248        2.0130672210
 C       -10.2568978844        5.6250233197        2.0280108825
 C       -10.9215128249        5.5811424050       -0.3519800989
 C        -4.3446765344        2.3795197509       -3.1727274059
 C        -4.0513081368        3.0801909729       -0.7803025237
 C        -6.9089666068        8.8609932245       -4.9469570059
 C        -6.7060911331        8.8694276674       -2.3578264546
 C       -11.9542579370        3.3491532285       -5.2176036829
 C       -13.6127266077        4.7450456357       -6.4442927850
 H       -14.7260454917        5.9823535643       -2.8077402870
 H       -14.4415330283        6.7221009842       -4.5260652336
 H       -13.4544071792        7.0878904728       -3.1866338382
 H       -10.0934984043        5.2083754285       -3.9646949514
 H       -11.1248646699        6.5416574097       -3.6738792873
 H        -9.4112809309        7.5715877393       -5.6344138120
 H        -8.5397275519        6.0869280852       -5.3959409111
 H        -4.2292100135        7.4113702728       -3.8152637001
 H        -4.7380542894        6.8917783940       -5.2434887710
 H        -3.1694763745        5.3273106526       -4.0814381816
 H        -4.6061860632        4.4258717312       -4.6035874958
 H        -6.4062559657        4.7516368751       -0.1682669685
 H        -6.8174754823        3.0278345421        0.2053255348
 H        -8.7808257922        3.5579911041       -1.4087741405
 H        -8.6615528725        5.2098160646       -0.8901647290
 H       -11.6326228151        2.2554717515       -0.3330783695
 H       -12.6648121085        3.6146536175       -0.7880596000
 H       -13.7509111694        1.3205704913       -0.4286117965
 H       -14.3535462610        2.4994473746        0.6424247667
 H       -11.8491053088       -1.6197468003        3.2221395556
 H       -13.3448625545       -1.9896376929        4.3253614974
 H       -10.9500722961       -2.3773143327        5.2555058742
 H       -12.0483545492       -1.3708155438        6.2175742168
 H        -8.9627333017        3.1800296013        7.6531910523
 H        -9.0268673100        1.6326528066        8.5905640383
 H       -10.4649465711        2.4182942771        8.2416901050
 H       -11.0758406051       -0.0811346047        7.9015342877
 H        -9.3897704641       -0.3324495715        8.4756719205
 H       -10.0959147494       -1.6534792893        7.6950102117
 H        -7.7020907333        0.3992333779        5.3067357830
 H        -8.0947337661       -1.2686067490        5.8885991470
 H        -7.6306574010        0.1084682686        7.0984899975
 H       -15.8184448188        1.6954363991        2.2688740718
 H       -14.6479371070        2.4974596316        3.3190282652
 H       -15.6998570216        1.1390003404        3.8046889053
 H       -13.9845251230       -1.6134965602        1.8038480549
 H       -15.1264762282       -0.4130929687        1.1484423331
 H       -15.5139451953       -1.0970044862        2.6465319862
 H        -9.4221357970        6.2626150659        1.7193399000
 H        -9.9738021277        5.1290328147        2.9400901996
 H       -11.1604705289        6.2984099841        2.1887089105
 H       -11.8771508804        6.0132973567       -0.4291453564
 H       -10.8498111215        5.0423629014       -1.3355070392
 H       -10.2307783346        6.4055141367       -0.3765064553
 H        -3.2993181669        2.3590724043       -3.1192340840
 H        -4.6865930349        2.6040786627       -4.1640440971
 H        -4.7599014313        1.4112713065       -2.9813480443
 H        -2.8963665443        2.9122684808       -0.9604472956
 H        -4.3105726029        2.1847646228       -0.2069297396
 H        -4.1462916559        4.0493652699       -0.1500989653
 H        -5.8275429630        9.1180159282       -4.9810198662
 H        -7.5164260779        9.7743639456       -4.9565774518
 H        -7.2033903368        8.3819542814       -5.8481394097
 H        -7.6524549598        9.3214599876       -2.0299784607
 H        -6.0058547388        9.6514608083       -2.6460002906
 H        -6.2469866532        8.2150570039       -1.6546691602
 H       -11.1794857075        3.1827920406       -4.4829176334
 H       -11.6426452268        3.0328793375       -6.1634129996
 H       -12.7798702562        2.6772483876       -4.9132972554
 H       -14.5071368159        4.1598652172       -6.0344403277
 H       -13.2098439858        4.4109783312       -7.3543032164
 H       -14.1291336525        5.7598435216       -6.6009527665
 Na      -10.2925439298        2.1535008903        3.1780369194
