117

 C       -13.8564426707        6.2398137570       -3.6143102404
 C       -12.9995393152        4.9658596211       -3.7913835463
 O       -12.6145358571        4.3471573651       -2.8002404855
 C       -12.5653533042        4.7150416602       -5.2786643294
 C       -11.4677358978        5.7815528285       -5.5768653783
 O       -11.5222938320        6.4269420320       -6.5827654866
 C       -10.4331442312        5.9776371169       -4.4826120612
 C        -9.2025072560        6.8384866079       -4.8456189968
 C        -8.6088861896        7.6156012199       -3.6838318982
 O        -9.1499884125        7.7453992592       -2.6089531732
 C        -7.1104622347        8.0160511219       -3.7668386882
 C        -6.3420233784        6.5854469023       -3.7911608576
 O        -6.8022745839        5.5762232029       -3.2342946820
 C        -5.0283176078        6.5278499302       -4.4562306225
 C        -4.2347798055        5.2561642788       -4.0543390676
 C        -4.3880270903        4.8955049564       -2.5275548257
 O        -4.2080741365        5.7029214961       -1.6456761650
 C        -4.7492405360        3.3969158813       -2.0936795110
 C        -6.2068688139        3.3245841220       -1.8114182166
 O        -6.9768917786        2.8592429990       -2.6677182123
 C        -6.8712623207        3.8667979794       -0.4879947765
 C        -8.3959263779        3.9823246450       -0.7386980162
 C        -9.2245657871        3.9092451860        0.6017730364
 O        -8.9334524702        3.0080828230        1.3875077501
 C       -10.5358795571        4.7970242159        0.8308854185
 C       -11.6978262302        3.8164953305        1.1186897870
 O       -12.2061621848        3.7510526564        2.2424569614
 C       -12.2986308565        3.0390446792        0.0256903396
 C       -13.3785782175        1.9916010277        0.5670690929
 C       -12.8276504467        1.0526357147        1.6496208728
 O       -11.6806763827        0.6446861245        1.7071239034
 C       -14.0014504195        0.4634359424        2.7315662884
 C       -13.1410028680        0.2193858207        3.9487625986
 O       -12.8249633565        1.0638113683        4.7644434352
 C       -12.5480728326       -1.1727796316        3.9827917587
 C       -11.5610685491       -1.3556938006        5.1448260163
 C       -10.4271820020       -0.2929731708        5.1479072523
 O        -9.9821772079        0.1467863850        4.0707350648
 C        -9.7435194714        0.1324953196        6.4145952524
 C        -9.6727455160        1.7774813865        6.5707811842
 O        -9.7329499947        2.5432635168        5.6335156708
 C        -9.4442722201        2.3355113826        7.9952097827
 C       -10.3395934370       -0.5634987715        7.6482853295
 C        -8.1636664234       -0.3029988893        6.3629076810
 C       -14.9837585984        1.5367814997        3.0848781749
 C       -14.6426935506       -0.8155431814        2.0888995529
 C       -10.2659788718        5.6557061213        2.0307854116
 C       -10.9474554453        5.6456375873       -0.3778073262
 C        -4.4324464086        2.2922337131       -3.1879645688
 C        -3.9792450734        3.0612195600       -0.8325432678
 C        -6.7925875031        8.8493486629       -5.0617290992
 C        -6.6405417026        8.7394522357       -2.4733521244
 C       -11.8542675280        3.3186537205       -5.2475701210
 C       -13.7464341106        4.7145500316       -6.2264088983
 H       -14.7857685997        6.0242596112       -3.0648499282
 H       -14.0737920402        6.6840251857       -4.5908875325
 H       -13.3596589835        7.0085582887       -3.0206725085
 H       -10.0713574378        5.0375688384       -4.0245846072
 H       -11.1398440704        6.3637879759       -3.7491157957
 H        -9.5110637187        7.4846994841       -5.6870783436
 H        -8.3478072197        6.2345685308       -5.2251269484
 H        -4.3850156484        7.4327250289       -4.2697856484
 H        -5.0495227794        6.5444708872       -5.5703090904
 H        -3.1088677972        5.3961663590       -4.3147020793
 H        -4.6284004422        4.3985298949       -4.5793496016
 H        -6.5770981413        4.8281649641       -0.1368650232
 H        -6.5658544281        3.1169963479        0.2954034813
 H        -8.7773908857        3.1720277556       -1.4124666487
 H        -8.5413257992        4.9532482130       -1.2439626193
 H       -11.5517750967        2.4997923025       -0.5455145826
 H       -12.7607213463        3.6933008736       -0.6763868397
 H       -13.7050903340        1.2625726212       -0.1668043622
 H       -14.2998861065        2.5714564461        1.0411475192
 H       -11.9418243669       -1.3789717144        3.1306852423
 H       -13.3231594487       -1.8765308901        4.0197462667
 H       -11.0951987247       -2.3498282526        5.1643078738
 H       -12.1488925867       -1.2960593930        6.0482275208
 H        -8.3586690200        2.5915678443        8.0223285087
 H        -9.6394967695        1.5871695799        8.7672729036
 H       -10.1933990707        3.1703130549        8.1463776942
 H       -11.2856821983       -0.1961014692        7.9696342171
 H        -9.7406250814       -0.5192882416        8.5495744989
 H       -10.2321178289       -1.6392997378        7.4416301279
 H        -7.8715368624       -0.0731002461        5.3436577416
 H        -8.0561821542       -1.3527271569        6.4938399466
 H        -7.6579067169        0.3920179088        7.0106764480
 H       -15.8062005942        1.7108333589        2.4603131864
 H       -14.4422164977        2.4880703524        3.2468091466
 H       -15.5462498254        1.3103878570        3.9949438800
 H       -13.8652991745       -1.4506525439        1.6304629563
 H       -15.4765642090       -0.5786454083        1.3691069171
 H       -15.1271614485       -1.3836889169        2.8647210983
 H        -9.3364218921        6.1772237481        1.8859670287
 H       -10.1649183083        5.0215724100        2.9164384619
 H       -11.0197005729        6.3721778114        2.1317423842
 H       -11.7641072270        6.3314173552       -0.0516634335
 H       -11.3708929406        5.1518786228       -1.2123627525
 H       -10.1770432257        6.3723876493       -0.6499460858
 H        -3.4240498099        2.5376379076       -3.5686742621
 H        -5.1656750584        2.3262021144       -3.9952740359
 H        -4.5114647650        1.2566792285       -2.8081643869
 H        -3.0390115444        3.0108047468       -1.1262178161
 H        -4.1954616477        2.1006266452       -0.4535726730
 H        -4.0304192940        3.7908007451       -0.0737435093
 H        -5.8592765337        9.3645399341       -4.9668104248
 H        -7.5489214665        9.5902671968       -5.2553216452
 H        -6.7819634990        8.2028858609       -5.9819875622
 H        -7.4565312552        9.0591711354       -1.8615414321
 H        -6.0257830471        9.5341924448       -2.8232267813
 H        -5.9927861663        8.0514800464       -1.8991897545
 H       -11.2077471702        3.3126444201       -4.3907058642
 H       -11.3363492208        3.1435194946       -6.2222632978
 H       -12.5340628186        2.5214254547       -5.1786054129
 H       -14.4730338749        3.9982548309       -5.8889896979
 H       -13.3386607617        4.5518335190       -7.2551341953
 H       -14.1555645770        5.6508041157       -6.3114397474
 Na      -10.5194798051        2.2457709355        3.2392418289
