117

 C       -13.8369404566        6.2398463217       -3.5598713033
 C       -13.0000943354        4.9502728921       -3.7676615344
 O       -12.6963844481        4.2341825397       -2.8252320831
 C       -12.5255743757        4.6396326949       -5.1844466457
 C       -11.4792393445        5.7536702931       -5.5222757847
 O       -11.5985209043        6.3888498155       -6.5330937961
 C       -10.3943568316        6.0144690865       -4.4064354263
 C        -9.2970614417        6.9425721989       -4.8985927149
 C        -8.5354803135        7.4880550778       -3.6422034003
 O        -9.1238600202        7.8550180626       -2.6375435595
 C        -7.0058742813        7.8620288458       -3.7910789318
 C        -6.3081849793        6.5431854794       -3.8437048273
 O        -6.8120873061        5.5799356298       -3.2900947727
 C        -4.9098709998        6.4277341768       -4.4720309674
 C        -4.2855527555        5.1374038126       -4.0682615212
 C        -4.3950980651        4.8346943002       -2.5475639979
 O        -4.1964636464        5.6827031576       -1.7157558711
 C        -4.6679700643        3.3828771688       -2.1498766835
 C        -6.3020815034        3.2898336795       -1.9237421761
 O        -7.0997167872        2.8167864974       -2.6715621346
 C        -6.8264924684        3.8840164728       -0.5211255990
 C        -8.4008115785        3.9968660621       -0.6856450805
 C        -9.2464885926        3.8094299117        0.5253678114
 O        -9.0554312316        3.0356824407        1.4321817813
 C       -10.4819086679        4.7804029690        0.7899938349
 C       -11.6997306851        3.8544259982        1.0940031986
 O       -12.1491370062        3.8630615141        2.2278609456
 C       -12.2674273317        2.9767157575       -0.0280575312
 C       -13.4059435567        1.9843553728        0.4602175776
 C       -12.9352554815        1.0486926600        1.6025413571
 O       -11.7905564098        0.6542346533        1.6390324235
 C       -13.9063149436        0.5830308619        2.6885761762
 C       -13.0948976102        0.1773467643        3.9544918792
 O       -12.8378603416        1.0131350476        4.8242451152
 C       -12.4081831857       -1.2180721649        3.9831969316
 C       -11.4949882536       -1.2910346096        5.2354413110
 C       -10.4251391060       -0.1650525291        5.1403132348
 O       -10.0307256323        0.1926400310        4.0666717139
 C        -9.7547507884        0.1906707814        6.5025400017
 C        -9.7453840203        1.7577602733        6.6183966020
 O        -9.8369576210        2.4520188864        5.6353077253
 C        -9.4059489884        2.4225953523        7.9770812101
 C       -10.3119642626       -0.5000156337        7.7634629767
 C        -8.3088835114       -0.3221187609        6.4628737713
 C       -15.0561472269        1.5882358647        3.0289241035
 C       -14.6565068856       -0.6800082530        2.0690171212
 C       -10.2186263865        5.6489846802        2.0557311044
 C       -10.8684870677        5.7646838818       -0.3742866037
 C        -4.2725346430        2.3249158899       -3.2335051716
 C        -3.8650563330        3.0876000891       -0.8453302652
 C        -6.8519224567        8.7715893771       -5.0762037048
 C        -6.6130720007        8.7235077913       -2.5479500836
 C       -11.7721406782        3.2546562305       -5.2808991230
 C       -13.7640784331        4.7404901114       -6.1347473378
 H       -14.8568696717        6.0076385425       -3.1708395559
 H       -13.9149149214        6.8785730442       -4.4769192032
 H       -13.3787743505        6.7822229360       -2.7808507308
 H        -9.9024698747        5.0556718520       -4.2942523422
 H       -10.9393235889        6.2287639092       -3.4724420789
 H        -9.8302127653        7.7854832864       -5.3613148294
 H        -8.6060104363        6.5355257313       -5.6703446209
 H        -4.1361937118        7.1957774053       -4.2145668569
 H        -4.8393980029        6.4390422020       -5.5581277861
 H        -3.2444519186        5.1578531362       -4.3012924541
 H        -4.7477695167        4.2876557094       -4.5879260427
 H        -6.4059329384        4.7800115849       -0.1451121056
 H        -6.5462136288        3.1337735078        0.1490725523
 H        -8.7556872923        3.1592215121       -1.3307751187
 H        -8.6822867975        4.9594439769       -1.1886626254
 H       -11.4380706253        2.4305283243       -0.5085737129
 H       -12.7111482143        3.5135965515       -0.8263905357
 H       -13.8823026274        1.3593330047       -0.4230434507
 H       -14.1247114151        2.6459421257        0.9140824594
 H       -11.7445663140       -1.3993035810        3.1765363801
 H       -13.1281041107       -2.0244998930        3.9725213073
 H       -10.9155869189       -2.1991229513        5.2932431756
 H       -12.1315183191       -1.3232873580        6.1019290276
 H        -8.2563905675        2.3106169954        8.1288193810
 H        -9.9094992891        1.8727714139        8.7990970891
 H        -9.8438699625        3.4054662049        7.9248840424
 H       -11.3006500269       -0.0726323951        7.9113089106
 H        -9.9035793106       -0.3389599991        8.7098637017
 H       -10.2003791437       -1.5601765507        7.6121114233
 H        -7.9394694376       -0.1609063049        5.4773384747
 H        -8.4045728157       -1.4314374008        6.5582255580
 H        -7.7810285776        0.1984031856        7.1401103544
 H       -15.7671152164        1.8055372146        2.2208665290
 H       -14.7040587605        2.5098201616        3.3513570111
 H       -15.7374715473        1.2502487918        3.7882117525
 H       -14.0442810209       -1.4289745805        1.5608337378
 H       -15.4774279891       -0.4145691748        1.4790324696
 H       -15.1018262020       -1.1469285166        2.9860954918
 H        -9.4387751101        6.3510696538        1.8252795185
 H        -9.9833207075        5.0940457899        2.9304648877
 H       -11.1410909344        6.2619762397        2.1429035057
 H       -11.7627272480        6.3453013532       -0.1437380906
 H       -11.1285752108        5.2625547225       -1.3390086249
 H       -10.1205590665        6.5689691490       -0.4747777556
 H        -3.3667422649        2.6787768450       -3.6987150499
 H        -5.0782020688        2.1810964494       -3.9862484882
 H        -4.1371463517        1.2886693374       -2.7761417271
 H        -2.7590972432        3.1116778944       -1.0545486546
 H        -4.1174545500        2.1731233696       -0.4800407819
 H        -4.0405876377        3.8444332240       -0.0614976956
 H        -5.8779728911        9.2843439635       -5.1331372830
 H        -7.5302674321        9.5750588186       -4.9151788913
 H        -7.0994801421        8.3221062886       -6.0560935172
 H        -7.5169236815        9.1063026619       -2.0408602055
 H        -6.0014828150        9.4946993684       -3.0048593954
 H        -6.0188164211        8.1624809365       -1.8013535522
 H       -11.0673201640        3.1691858917       -4.4227088200
 H       -11.2714233753        3.2869895426       -6.2660968991
 H       -12.4328791127        2.3467667428       -5.3925389871
 H       -14.6299231891        4.0219885212       -5.9720061344
 H       -13.3307319624        4.7102149609       -7.0803408339
 H       -13.9972679553        5.7923879683       -6.1618767004
 Na      -10.5360930712        2.2878926586        3.3709353496
