117

 C       -14.2542100949        6.2237814790       -3.8823833754
 C       -13.2272801935        5.1203875842       -3.9330882393
 O       -12.7603958884        4.6362115273       -2.9017801603
 C       -12.5622925173        4.7642632785       -5.3107330124
 C       -11.3540354421        5.7742139023       -5.6061344722
 O       -11.2760416473        6.2419371834       -6.7399416722
 C       -10.3963034636        6.0549093426       -4.5117618495
 C        -9.2564546451        6.9494376068       -4.8356241408
 C        -8.6978882527        7.5728186650       -3.5406849513
 O        -9.4238811903        7.8764461234       -2.6331603169
 C        -7.2335428004        8.0856526804       -3.6336118144
 C        -6.2456312347        6.8633924103       -3.5806431890
 O        -6.7030087740        5.8369986557       -3.0507334754
 C        -4.7955139315        6.8354328475       -3.9229284725
 C        -4.2898786695        5.3792052009       -3.8521472548
 C        -4.5442231927        4.8258451518       -2.3225011781
 O        -4.3530700503        5.6618629794       -1.4627308786
 C        -4.8470343372        3.2915509548       -1.9461155555
 C        -6.3678948336        3.2376087799       -1.8209417584
 O        -7.1441928594        2.7501552249       -2.6218982590
 C        -6.8864968249        3.7821827524       -0.4745624002
 C        -8.3794171897        4.2888279417       -0.6250969854
 C        -9.2296342987        3.9869801263        0.6663146122
 O        -8.8941784905        3.0812338627        1.4401723607
 C       -10.5825555579        4.7415006930        0.8494505698
 C       -11.7437766622        3.6890335535        1.1286835196
 O       -11.9583772503        3.3751784256        2.3013850917
 C       -12.4936662631        3.0672586333       -0.0492216763
 C       -13.5332427232        2.0985215420        0.4851096920
 C       -12.9389392849        1.1319095359        1.5763918435
 O       -11.7452795018        0.8006290086        1.6076389168
 C       -13.9026431020        0.5256575199        2.6189216308
 C       -12.9474654046        0.0830155784        3.8178027161
 O       -12.6448501278        0.9527552687        4.5596511886
 C       -12.5198625910       -1.4042241589        4.0412686805
 C       -11.5547383252       -1.4304823541        5.3174631469
 C       -10.3028651327       -0.5487949648        5.1256907552
 O        -9.8967365052       -0.2750953658        3.9833405034
 C        -9.4164871182        0.0307334365        6.3037615591
 C        -9.6232087398        1.6282052856        6.3368209745
 O        -9.7985728621        2.3404429264        5.3652630984
 C        -9.6421092750        2.4127909915        7.7148485937
 C        -9.7133040967       -0.6099859251        7.6105195821
 C        -7.8709735071       -0.2477128615        5.9201185465
 C       -15.0061411119        1.4442593685        3.2426656694
 C       -14.5961573072       -0.7134920494        2.0521288128
 C       -10.4710142582        5.7107401621        2.1577384141
 C       -11.0488096983        5.5749725412       -0.3185203584
 C        -4.3203648941        2.4023877592       -3.1193126971
 C        -4.1476368653        3.0938437495       -0.5691182510
 C        -6.8506703610        8.9194673236       -4.8957495680
 C        -6.9546880088        8.9305347415       -2.3720484770
 C       -12.0285240121        3.3455875492       -5.3262010680
 C       -13.6277878289        4.9431825096       -6.4549293476
 H       -14.7836022994        6.1039070465       -2.9517960111
 H       -14.8054250952        6.2931015744       -4.7837156137
 H       -13.7614432485        7.2173991119       -3.8720454307
 H       -10.0696045935        5.0731333861       -4.1193719174
 H       -10.8862969961        6.4437298134       -3.6202619744
 H        -9.4527887054        7.7345485134       -5.5813454337
 H        -8.3503462289        6.4422384776       -5.2277359188
 H        -4.3056712233        7.4927417748       -3.1873583521
 H        -4.4059095130        7.3752867525       -4.8001459590
 H        -3.1775879781        5.2922859531       -4.0423324814
 H        -4.8479591179        4.8491669909       -4.5656451384
 H        -6.2875385649        4.5267249495       -0.0501113666
 H        -6.9451070556        2.9565518886        0.1940140795
 H        -8.7772599874        3.7605686133       -1.5326639772
 H        -8.4936533406        5.3598662662       -0.8398910790
 H       -11.8148446726        2.4294136155       -0.6077892953
 H       -12.9009239337        3.7277810308       -0.7750777867
 H       -13.8877089977        1.4170588963       -0.3331181353
 H       -14.5212997821        2.6257785126        0.8933090244
 H       -11.8722496722       -1.6670512296        3.2267065777
 H       -13.2488322584       -2.1303835088        4.1906047263
 H       -11.1791113699       -2.4439037485        5.4788226921
 H       -12.1459025904       -1.2060421713        6.1860146525
 H       -10.2509796737        3.2879663062        7.5363808096
 H        -8.5831869604        2.6605988781        7.9016578473
 H        -9.8922967996        1.7115950178        8.5895614834
 H       -10.7608511409       -0.6263544958        7.8729980077
 H        -9.0282122076       -0.1761096518        8.3735942440
 H        -9.4220395071       -1.6844023725        7.5429900946
 H        -7.6544059239        0.3641944418        5.0652719412
 H        -7.6643693677       -1.2409565980        5.7758743207
 H        -7.3630136294        0.1417699323        6.8338924960
 H       -15.5332109092        1.9070337841        2.4754631392
 H       -14.6111451610        2.3067178229        3.8048278920
 H       -15.7636859515        0.9348057519        3.8114908524
 H       -13.8707810722       -1.4456735287        1.7535338432
 H       -15.2213169757       -0.3855704813        1.1810474106
 H       -15.2366384784       -1.1178294926        2.7695353093
 H        -9.7072504185        6.4922208756        2.0071022456
 H       -10.0974479269        5.0832493521        3.0160251914
 H       -11.4070706104        6.1203338766        2.4338810788
 H       -12.1076974331        5.9120351740       -0.1264706145
 H       -11.1407285546        5.0746393867       -1.2657839140
 H       -10.4869279217        6.4949823840       -0.5620000397
 H        -3.2888840055        2.6901261501       -3.4663478279
 H        -5.0607662860        2.4733995843       -3.9208509201
 H        -4.3043854583        1.3580524004       -2.8110135912
 H        -3.1034193198        3.0306983222       -0.6336459784
 H        -4.4438308599        2.0538720026       -0.2484235718
 H        -4.4042728721        3.7582061903        0.1475927533
 H        -5.8027050791        9.0924586155       -4.9691240245
 H        -7.3646027577        9.8773369891       -4.8698108258
 H        -7.2075604282        8.4581633375       -5.8324519599
 H        -7.4827229302        9.8792974387       -2.4398952313
 H        -5.8656244945        9.1030009666       -2.3043047377
 H        -7.2107341901        8.2450110717       -1.5393318378
 H       -11.2342112685        3.2628396385       -4.5202711480
 H       -11.5158421565        2.9876395841       -6.2822706579
 H       -12.8048142643        2.6482370914       -4.9642077632
 H       -14.4721010388        4.3886507739       -6.2011709727
 H       -13.1362047302        4.5230507437       -7.3970313156
 H       -14.0815407310        5.8927413239       -6.5956852061
 Na      -10.1349745450        1.9121415302        3.1900069842
