117

 C       -14.1703072967        5.8064368311       -3.6386950360
 C       -13.1482177024        4.7431337794       -3.8355422598
 O       -12.9067360817        3.8604272012       -3.0214204932
 C       -12.4804389011        4.6841590853       -5.2019582397
 C       -11.7386578898        6.0592271102       -5.5044051201
 O       -12.1805165942        6.9132777306       -6.2346203283
 C       -10.4819420536        6.3292225965       -4.5393987128
 C        -9.7238543386        7.6252676901       -4.7844524351
 C        -8.6534514189        7.7444475115       -3.6914176391
 O        -8.8974930571        8.0969180605       -2.5819695713
 C        -7.0849231716        7.5894984256       -4.0744628756
 C        -6.6891172873        6.0555231073       -4.1115938712
 O        -7.5253812789        5.1572384139       -4.1780417229
 C        -5.2280816451        5.6851240045       -4.2981698308
 C        -4.8569812186        4.2288672861       -3.9363382082
 C        -4.6967511814        4.0915270248       -2.4488978222
 O        -4.7826644992        5.0549346699       -1.6942101441
 C        -4.6169810993        2.6558024147       -1.8460248497
 C        -6.0742429689        2.3108925438       -1.4446962833
 O        -6.7578256141        1.7414383413       -2.2739912082
 C        -6.7628013623        2.9430756748       -0.1711515148
 C        -7.9845601750        3.6724799231       -0.5414904036
 C        -8.9741248627        3.7432388625        0.6813876350
 O        -8.8294285943        2.9650254518        1.6145145336
 C       -10.1653950515        4.7680220417        0.6871558229
 C       -11.5551014019        4.0884434335        1.0383109327
 O       -11.8118900871        3.9922069102        2.2480355190
 C       -12.3516550859        3.4613068502       -0.0840549277
 C       -13.4870424014        2.6257449370        0.4601802546
 C       -12.9437324252        1.6047255002        1.4057597735
 O       -11.8292023370        1.1452421005        1.2241286596
 C       -13.7493933307        0.9492260012        2.5685022364
 C       -12.7756157022        0.5429967339        3.7723160787
 O       -12.4044632754        1.4572172972        4.4689123431
 C       -12.2908028314       -0.9283930783        4.0555077436
 C       -11.5181635369       -1.0961214228        5.3542640414
 C       -10.3823109829       -0.0097635171        5.4459221145
 O        -9.6990526408        0.1927915990        4.4725907247
 C       -10.0328319922        0.7818590697        6.7847607407
 C        -9.6876772685        2.4232678025        6.4214444443
 O        -9.4466368208        2.8202788870        5.2998635416
 C        -9.6724640895        3.4767349025        7.5777921833
 C       -11.0972208501        0.5883662686        7.8786150239
 C        -8.6039518151        0.3678083378        7.1534909880
 C       -14.8946313706        1.8777998681        3.2398031423
 C       -14.6249820313       -0.2962061394        2.0437926106
 C        -9.7627595737        5.8451252714        1.8698411398
 C       -10.3935647165        5.6223019660       -0.5920874433
 C        -4.0822732530        1.6783997694       -2.8821590818
 C        -3.8007362006        2.5345187734       -0.4772293841
 C        -6.7962993921        8.1968737966       -5.4429913014
 C        -6.3112560259        8.2432284888       -2.8492030044
 C       -11.4963178875        3.5060710754       -5.2200318040
 C       -13.5998339345        4.5199777043       -6.2942827930
 H       -13.8982118570        6.3007754320       -2.7395622037
 H       -15.1567821307        5.3689285665       -3.5644379641
 H       -14.1172877200        6.5789404235       -4.4698809608
 H        -9.8865617287        5.4668516886       -4.7372539235
 H       -11.0224817889        6.1537103930       -3.5719846867
 H       -10.3998817939        8.4773872410       -4.6462284358
 H        -9.3227592216        7.6690934749       -5.7892975342
 H        -4.6721727103        6.3345403136       -3.6011217218
 H        -5.0743448650        5.8256847273       -5.3615425748
 H        -3.9035630043        3.8619319202       -4.2712715560
 H        -5.6228544817        3.5159492028       -4.4136692095
 H        -6.0284603775        3.6624854372        0.3630032214
 H        -7.0736065407        2.0155963641        0.4308956546
 H        -8.5128382217        3.2960778554       -1.3892487968
 H        -7.6950041251        4.7038949570       -0.7601225961
 H       -11.7700597369        2.9510599601       -0.8706351893
 H       -12.7980547339        4.2769382031       -0.6963328469
 H       -13.9504432753        2.1211289691       -0.4236774330
 H       -14.4355332685        3.1935742514        0.9006498388
 H       -11.6232126345       -1.2558307910        3.2228932428
 H       -13.1796631432       -1.6320843029        3.9137448788
 H       -11.0364025355       -2.0962390215        5.2314734572
 H       -12.2033773441       -1.0829297150        6.2334617232
 H       -10.4369256927        4.1499692546        7.4239227201
 H        -8.7587015546        4.0799097325        7.6284866250
 H        -9.8859820300        2.9497485784        8.5253801882
 H       -12.0316980629        1.1411792885        7.6306326660
 H       -10.6813908508        1.0205611448        8.8175136796
 H       -11.4169638100       -0.3780715207        8.2011663925
 H        -7.9525223705        0.2780402177        6.2746754635
 H        -8.6285404548       -0.5846629316        7.6374213767
 H        -8.2068798899        1.1364756762        7.9348067359
 H       -15.8025388713        1.8614092289        2.6838632434
 H       -14.6647317404        2.9505329952        3.4075442375
 H       -15.2063267772        1.4011682386        4.1209539753
 H       -14.0240559485       -1.0385204998        1.5467056562
 H       -15.4052105160       -0.0296921397        1.3675926052
 H       -15.1391420014       -0.8132674102        2.8409196896
 H        -8.8038137589        6.2814195154        1.5714367870
 H        -9.7042405786        5.3375071307        2.8299147563
 H       -10.5392386898        6.6200351857        1.8948868511
 H       -11.1930724515        6.3306180261       -0.3542399202
 H       -10.7733711237        4.9468818186       -1.4137176457
 H        -9.4938697555        6.2099036267       -0.8374507818
 H        -2.9872712718        1.7803626542       -2.9157834933
 H        -4.5020107609        1.7354378268       -3.8929894219
 H        -4.3371143595        0.6922058217       -2.5315944738
 H        -2.7284538662        2.6609499614       -0.4974817208
 H        -3.9810516995        1.5772883243        0.0490472526
 H        -4.2574451537        3.3979810247        0.1486368342
 H        -5.7248943880        8.4174041685       -5.5977003214
 H        -7.3501668775        9.1548776829       -5.5210310394
 H        -7.1429253287        7.6764122341       -6.2831232213
 H        -6.4889359106        9.3325091912       -2.6751512595
 H        -5.1883679630        8.2213587651       -2.9526084207
 H        -6.5234728109        7.6323377252       -1.9741034093
 H       -10.7156623090        3.6039730723       -4.4203602728
 H       -11.0023778013        3.4526254490       -6.2107124317
 H       -12.0890091580        2.6442576375       -4.8486561783
 H       -14.1495937859        3.7083888996       -5.9343908454
 H       -13.1035586592        4.4018242166       -7.3217809649
 H       -14.3389367794        5.3417984776       -6.2270830849
 Na      -10.3428586753        2.1086254063        3.2138638730
