117

 C       -13.8083940340        6.0263618321       -3.2699702514
 C       -13.1425787324        4.6939531812       -3.6382695638
 O       -13.0723386360        3.7902082638       -2.8227887505
 C       -12.5286647078        4.5566471702       -5.0450205511
 C       -11.4769998181        5.8504927013       -5.3685012271
 O       -11.7033997103        6.5539735312       -6.3108554114
 C       -10.1863705197        5.9954337963       -4.4430411440
 C        -9.4393391167        7.2305694896       -4.8580034741
 C        -8.5645053108        7.6838109128       -3.6869964018
 O        -9.0282889877        7.7872914076       -2.5821825796
 C        -6.9889832295        7.9455820894       -3.9993785300
 C        -6.3938142576        6.5036602993       -4.0688197709
 O        -7.1871124819        5.6068205444       -3.7941607748
 C        -4.9781247343        6.1776044098       -4.5561847522
 C        -4.4816819747        4.7509451353       -4.1541822369
 C        -4.5318361256        4.5197074849       -2.5930078672
 O        -4.3027896150        5.4686531589       -1.8676318973
 C        -4.6810716478        3.0290914212       -1.9999175776
 C        -6.2223866079        2.8537253098       -1.8310564364
 O        -6.9160180193        2.3873192510       -2.7156298576
 C        -6.8931441199        3.3782415149       -0.4657733840
 C        -8.3507368457        3.9134260277       -0.7068036389
 C        -9.1980795916        3.8060875220        0.5802513040
 O        -8.9218824872        3.1155579618        1.5582027383
 C       -10.4064640185        4.8112216964        0.7317696445
 C       -11.6629949283        3.9149280768        1.1264119451
 O       -11.9697860911        3.7570074932        2.3076664001
 C       -12.3600480084        3.1671880584       -0.0429173873
 C       -13.3829854967        2.2212681206        0.4357310844
 C       -12.8799785255        1.2625465400        1.5865496831
 O       -11.6988349608        1.0113077210        1.6452865736
 C       -13.9826495376        0.7263760518        2.6791048040
 C       -13.0526030810        0.3447690608        3.8952244845
 O       -12.6572925708        1.1862783131        4.6826179548
 C       -12.4685853610       -1.0589747567        3.9593136109
 C       -11.5937460586       -1.1294340766        5.2331070872
 C       -10.4474987519       -0.1027146574        5.3310167960
 O        -9.8378884451        0.2366105645        4.3197554083
 C        -9.8907500417        0.4321160960        6.7035070432
 C        -9.8123931637        2.0418640539        6.6195697092
 O       -10.2363356057        2.6857984801        5.6717817484
 C        -9.2449697514        2.7194300835        7.8312662958
 C       -10.8471990391       -0.1610979646        7.7689045855
 C        -8.3798912425       -0.0704401346        6.7551925389
 C       -14.9345794025        1.7997226409        3.0224807823
 C       -14.5887045972       -0.4639921485        1.9333681407
 C        -9.9996373811        5.6525985421        1.9514216782
 C       -10.6400115732        5.6680862010       -0.4905469112
 C        -4.1921569836        2.0443042475       -3.0057205055
 C        -3.8884822030        3.0111302111       -0.6582715551
 C        -6.7399679340        8.6700949058       -5.3296762764
 C        -6.3093646024        8.8106931101       -2.7976177508
 C       -11.7470873592        3.2119357833       -5.3311476928
 C       -13.6631864680        4.6388021126       -6.1200557596
 H       -13.9619069282        6.5860516887       -4.1534333023
 H       -13.1421127607        6.7001454142       -2.7742416144
 H       -14.6665594419        5.7976507730       -2.5886010394
 H        -9.5151700892        5.1700112512       -4.6450583380
 H       -10.4792070065        6.0904273407       -3.3885325504
 H       -10.0587470966        8.1361516738       -5.0143932923
 H        -8.7883564753        7.0844444489       -5.7139166715
 H        -4.2932164346        6.9154516592       -4.1591341197
 H        -4.9142646051        6.0836303854       -5.6521507006
 H        -3.4922826540        4.4917149976       -4.4624221858
 H        -5.1548387744        4.0271008782       -4.6292110108
 H        -6.1533460140        4.0468671241       -0.1061788476
 H        -6.8739383455        2.5772106654        0.1743693710
 H        -8.9854221286        3.3330632591       -1.4298937827
 H        -8.3296963063        4.9607724096       -1.0220491221
 H       -11.7259215682        2.6440759901       -0.7139512451
 H       -12.9155944261        3.8704438010       -0.6994968639
 H       -13.7363695860        1.6282252615       -0.3707762662
 H       -14.2243321532        2.8165444321        0.8564624562
 H       -11.8900955243       -1.3184245745        3.0944677167
 H       -13.2211379820       -1.8476291118        3.9425349003
 H       -11.2020119389       -2.1306405758        5.3034831152
 H       -12.2399731897       -1.0722600136        6.0864809332
 H        -9.6563184493        2.2362148400        8.6934150780
 H        -9.7013500944        3.7596479527        7.8530765450
 H        -8.1025056339        2.7026179468        7.7730964126
 H       -11.8951007755        0.1427441928        7.6115318269
 H       -10.5620033046        0.1664141086        8.7963944097
 H       -10.7896333781       -1.2402251342        7.6815552491
 H        -7.8922108313        0.0950787445        5.8248076577
 H        -8.3784593976       -1.0321370449        7.1170322761
 H        -7.8993791467        0.5434165547        7.5641184628
 H       -15.6647385397        1.9017380573        2.2611847441
 H       -14.5101011036        2.8028744422        3.1298210904
 H       -15.3563367384        1.6761253724        3.9791017580
 H       -13.8503217855       -1.1523820192        1.5134329365
 H       -15.2215757171       -0.1686172081        1.0871299995
 H       -15.1671219385       -1.0538585714        2.6212826136
 H        -9.0736198362        6.1736536864        1.7638395750
 H        -9.8838871820        4.9450765402        2.7497168334
 H       -10.7873822076        6.3297064882        2.1899182862
 H       -11.5793899766        6.2257045828       -0.3977499560
 H       -10.6484365939        4.9972107939       -1.3753287733
 H        -9.7967797323        6.3428839256       -0.6867111786
 H        -3.0690922907        2.0727303231       -3.0329193075
 H        -4.5404129606        2.3010333721       -4.0191458102
 H        -4.4211495511        1.0413724906       -2.6861779310
 H        -2.8564065578        2.9590582305       -0.8368324409
 H        -4.2296239310        2.2283110540        0.0820269659
 H        -4.0729978524        3.9626133398       -0.1506595888
 H        -5.7732595344        9.1610617313       -5.4176124459
 H        -7.4767171371        9.4960419934       -5.4792780516
 H        -6.7981051248        8.0338906482       -6.1645437760
 H        -6.5107524848        9.8817014179       -2.8905360536
 H        -5.2444267058        8.5819161143       -2.6790659285
 H        -6.8302981063        8.5188008970       -1.9141443062
 H       -10.8140574589        3.1570189686       -4.7362487084
 H       -11.5455539631        3.0874232606       -6.4018745124
 H       -12.4700955513        2.4469763336       -4.9899190430
 H       -14.2873116482        3.8301576807       -5.9212394279
 H       -13.2403045798        4.3991086321       -7.1396976672
 H       -14.1104294241        5.6394128720       -6.0548532976
 Na      -10.4402581112        2.1664711382        3.3034799681
