117

 C       -14.3705640874        5.7362616806       -3.6200793607
 C       -13.2582504388        4.7684853070       -3.8550809579
 O       -12.9077878389        3.9949203368       -2.9654299219
 C       -12.5148141405        4.6888594468       -5.2586488394
 C       -11.7520030400        6.1626200592       -5.4429021001
 O       -12.1335758064        6.9806295691       -6.2551934396
 C       -10.3872375514        6.3310170482       -4.5922844409
 C        -9.7099063190        7.6274363224       -4.7824670678
 C        -8.6203202696        7.7742908394       -3.6936719759
 O        -8.9233961038        8.0530541825       -2.5505005851
 C        -7.0974455929        7.5027990621       -4.0017195348
 C        -6.7193373292        5.9598300127       -4.1216917029
 O        -7.6224934420        5.1212887994       -4.1757005974
 C        -5.2360095126        5.6836607945       -4.2724150508
 C        -4.9367970999        4.2537341982       -3.9405877837
 C        -4.6942795334        4.0107832000       -2.4064182464
 O        -4.7766154083        4.9510430732       -1.6638497741
 C        -4.6245182184        2.5721030174       -1.8195897764
 C        -6.1336733995        2.2552442632       -1.4883361171
 O        -6.8135439176        1.5025214044       -2.1351138647
 C        -6.7572978634        2.8360028730       -0.1634020889
 C        -8.0010888777        3.7359824755       -0.5198123656
 C        -9.0507791482        3.7816681303        0.6411056773
 O        -8.8548402944        2.9354986899        1.5000757052
 C       -10.1540713388        4.8650600187        0.6854370196
 C       -11.4702048374        4.1574823902        1.1434262903
 O       -11.7984908996        3.9606738911        2.2959612696
 C       -12.3278253460        3.5663701071        0.0331423700
 C       -13.5280672186        2.6416702566        0.4810563740
 C       -12.9639320103        1.4999210896        1.4439314592
 O       -11.8148154707        1.1502463704        1.2767288818
 C       -13.8735918083        0.8932107790        2.6672127841
 C       -12.8135579951        0.5793446438        3.7911209761
 O       -12.3556405849        1.4347161110        4.5116120566
 C       -12.2688914628       -0.8344673115        4.0141220917
 C       -11.4749694825       -0.8899504392        5.3490613678
 C       -10.3381420723        0.1022300110        5.3879563870
 O        -9.5918601726        0.1556781643        4.4057580269
 C       -10.0204922580        0.9537569573        6.7717313295
 C        -9.8343216691        2.3664959120        6.3899395626
 O        -9.5311516721        2.7329737732        5.2965615321
 C        -9.7294465257        3.4712201438        7.4631716141
 C       -11.0673663532        0.8523990381        7.8562046185
 C        -8.5960315096        0.3207028011        7.2274383367
 C       -14.8917150776        1.9438307868        3.1129633427
 C       -14.5592890417       -0.3473338292        2.1259531643
 C        -9.7967022485        5.8292606133        1.8875765423
 C       -10.2297241184        5.5743602905       -0.6936708984
 C        -3.9920948082        1.5473632195       -2.8458440227
 C        -3.7550246768        2.6487749578       -0.5274002682
 C        -6.7053895915        8.1605719509       -5.3753656713
 C        -6.3042465228        8.2146770766       -2.9146051119
 C       -11.4833042941        3.5059547835       -5.3334007401
 C       -13.5798203229        4.4219328827       -6.3944335634
 H       -14.5678745951        5.8199286105       -2.5532744656
 H       -15.2257085257        5.3192694477       -4.1546430725
 H       -14.1155665586        6.7486753019       -4.0177529744
 H        -9.8686231757        5.4467634657       -4.9225386797
 H       -10.7843342906        6.0787255550       -3.6265919004
 H       -10.4757708379        8.4090058677       -4.6964392954
 H        -9.2720201001        7.7068150322       -5.7812909633
 H        -4.7778796133        6.3174392256       -3.5105412814
 H        -4.9784384076        5.8667144304       -5.3536354736
 H        -4.0880316994        3.7726957433       -4.5564397414
 H        -5.8318175546        3.6768344498       -4.2812923324
 H        -6.0590698055        3.4165306447        0.3589877892
 H        -7.0867113449        1.9231368516        0.3141693235
 H        -8.5971757908        3.2765202881       -1.3646885418
 H        -7.6729859773        4.7090598278       -0.8455588586
 H       -11.6734023046        2.9774740249       -0.5746641886
 H       -12.6261064823        4.3090282453       -0.7295253831
 H       -14.0392057881        2.2573133643       -0.4070374707
 H       -14.3837725200        3.2409592184        0.9892825411
 H       -11.7483494435       -1.1933169142        3.1291570199
 H       -13.1544823518       -1.4574926484        4.0447622229
 H       -11.1117479168       -1.9398319670        5.4556720023
 H       -12.1916429714       -0.6189063087        6.1305551339
 H       -10.5686244004        4.1830621289        7.3768289529
 H        -8.8198188916        3.9899949286        7.3739073952
 H        -9.8380644694        3.0633125943        8.4649199905
 H       -12.0029805822        1.4042088044        7.7294212129
 H       -10.6561921922        1.1122010472        8.8787309850
 H       -11.3065704264       -0.2180228972        8.0516654322
 H        -7.8145624947        0.1574463100        6.4263529474
 H        -8.8538965619       -0.6638266447        7.6374124390
 H        -8.2350527610        0.9512582047        8.0673525808
 H       -15.5270788677        2.2372519038        2.3068889481
 H       -14.4031143152        2.8715067531        3.4907560969
 H       -15.6280874421        1.5181626534        3.8211476487
 H       -13.8295142611       -1.0200090309        1.6946034121
 H       -15.3792795239       -0.2139324130        1.3622108684
 H       -15.0333343170       -0.8858275770        2.8802207157
 H        -8.7393125590        6.1749930980        1.7930822983
 H        -9.9458859488        5.1837188723        2.8065459226
 H       -10.4839236470        6.6491735786        1.8910438757
 H       -10.9558738458        6.4073111884       -0.7264774884
 H       -10.5104275299        4.8158444182       -1.3798979241
 H        -9.2597542361        6.0305711385       -0.8717478998
 H        -3.0332184976        1.8978971586       -3.2576169467
 H        -4.7107486933        1.4193984055       -3.6271406656
 H        -3.9061460967        0.5882640458       -2.4330619165
 H        -2.7398523709        2.6769821239       -0.8885558860
 H        -3.8240441445        1.8240732947        0.0363537234
 H        -3.9231533973        3.5093539945        0.0517176239
 H        -5.6858116142        8.4778512364       -5.5014263881
 H        -7.3668631750        9.0403180780       -5.5372285336
 H        -6.9837679191        7.5589232036       -6.2356689937
 H        -6.3097134231        9.2991363976       -2.9276903863
 H        -5.2327098458        7.9965589887       -3.0303021686
 H        -6.5588962213        7.8115428766       -1.9043601689
 H       -10.7858200747        3.5660241647       -4.5152360599
 H       -10.9348824976        3.4599006466       -6.3228904687
 H       -12.0728291934        2.6557271423       -5.1079790177
 H       -14.1499942408        3.6213217449       -5.9606250915
 H       -13.0432616367        4.2011259833       -7.3349121750
 H       -14.2491445438        5.2044932661       -6.5145534629
 Na      -10.2601160741        2.2186208770        3.2268688727
