117

 C       -13.8680322785        5.9856939022       -3.3874875360
 C       -13.1552788475        4.6836684929       -3.8122354433
 O       -12.9918844871        3.8726178181       -2.9072780175
 C       -12.4798457250        4.6232305335       -5.1814624882
 C       -11.6704582603        6.0273307702       -5.3519288494
 O       -12.0651204478        6.8111598990       -6.1849948694
 C       -10.4305916171        6.2653455746       -4.3991056646
 C        -9.7516506765        7.5136870409       -4.8276070005
 C        -8.6711150808        7.7356886837       -3.7332475758
 O        -9.0040954594        8.0131159849       -2.5878247160
 C        -7.0925107731        7.6829523067       -4.0871527958
 C        -6.6637056243        6.1142344443       -4.1543595669
 O        -7.4762007568        5.2242106669       -4.0881207070
 C        -5.2293261595        5.8318511012       -4.4054156564
 C        -4.8010113353        4.4657924459       -3.9114368609
 C        -4.6058455455        4.2615429729       -2.3561618739
 O        -4.7243840826        5.1645697689       -1.5646304114
 C        -4.6055739044        2.7734777267       -1.8415461616
 C        -6.1424697782        2.5207763662       -1.5991831344
 O        -6.8709292001        2.0726575695       -2.4352403724
 C        -6.7732453070        3.0269305259       -0.2403886927
 C        -8.1839849231        3.6985457369       -0.5739540477
 C        -9.0927435864        3.7198074088        0.6717628954
 O        -8.8863167825        3.0242628506        1.6420296310
 C       -10.2622687804        4.8244684927        0.7262103038
 C       -11.5532886250        4.0297684140        1.0637946097
 O       -11.8417800990        3.7774388982        2.2205923671
 C       -12.4316387461        3.4556023176       -0.0560182498
 C       -13.5285482055        2.5050872743        0.5646340434
 C       -12.8767102107        1.5316775931        1.5635673638
 O       -11.7473370743        1.0985370321        1.3845526324
 C       -13.7844405114        0.8975994557        2.5956316416
 C       -12.8068719486        0.5087688583        3.7340315469
 O       -12.3712434992        1.3581244652        4.5027475847
 C       -12.3317338902       -0.9205362852        4.0342696208
 C       -11.5699112966       -0.9302891012        5.3697410710
 C       -10.4280363976        0.0373115694        5.2842043468
 O        -9.7331113353        0.2093091090        4.2771779675
 C       -10.0488005728        0.7402238854        6.6661768422
 C        -9.7822620348        2.2842641916        6.4610800677
 O        -9.6127090370        2.6944309739        5.3423776103
 C        -9.6630207687        3.1557680387        7.7614988959
 C       -11.0210635787        0.4591253392        7.9165070769
 C        -8.5808710476        0.2113539932        7.1134972588
 C       -14.7688060614        1.9451068166        3.2242454542
 C       -14.4859480507       -0.3316985667        1.9101883104
 C        -9.8562144597        5.7424124352        1.9060360143
 C       -10.3581915942        5.5744934543       -0.6631234354
 C        -4.0864553711        1.6003177585       -2.8179442361
 C        -3.7554021804        2.6854428266       -0.6141616994
 C        -6.7773159824        8.4137627293       -5.4544727380
 C        -6.2475475755        8.3309795595       -2.9721192965
 C       -11.5046188084        3.3862731083       -5.3443467709
 C       -13.5216201742        4.4802280932       -6.3537803948
 H       -13.0725965201        6.7269217394       -3.1275847438
 H       -14.4975633517        5.7879821919       -2.5126004724
 H       -14.5294966996        6.3003295721       -4.1664019193
 H        -9.7581401983        5.3699274505       -4.4864744179
 H       -10.9428331540        6.3168491492       -3.4532933066
 H       -10.4224318320        8.3763517833       -4.8343968400
 H        -9.2781282682        7.3907584886       -5.8122104850
 H        -4.6267626209        6.5629867088       -3.8901334708
 H        -5.1372928479        5.7800042589       -5.5078728402
 H        -3.8546305908        4.1194648289       -4.3883018082
 H        -5.5231026836        3.8014181334       -4.2379242942
 H        -6.0017447367        3.6783618992        0.0615449434
 H        -6.9283664706        2.1962807334        0.4301683164
 H        -8.7644739086        3.0893253058       -1.3134243259
 H        -8.1105502062        4.7047489595       -0.9742401113
 H       -11.7566845759        2.8565935441       -0.6728973232
 H       -12.8470692398        4.1103945021       -0.8297741647
 H       -14.1032084972        2.0320107044       -0.1931189698
 H       -14.2621132583        3.0375782031        1.0838683602
 H       -11.6944919574       -1.3224416706        3.2255153927
 H       -13.1811853050       -1.5740893338        3.9941020598
 H       -11.2083734233       -1.9172901169        5.6058379006
 H       -12.2719004623       -0.6156319871        6.1232016168
 H       -10.4529951746        4.0062353142        7.6808614263
 H        -8.7571397743        3.7488512919        7.6958264679
 H        -9.7417949827        2.5564901634        8.6746900351
 H       -12.0582731363        0.5134466619        7.6960643564
 H       -10.6926069483        1.0824870682        8.7274508745
 H       -10.9942998869       -0.5566915065        8.3301259667
 H        -7.9381166893        0.5395332024        6.3120687972
 H        -8.4164793965       -0.8615239209        7.3401179401
 H        -8.3623943271        0.7144035235        7.9901566782
 H       -15.6207526906        2.2926220155        2.6495298247
 H       -14.1572763216        2.8253267912        3.3758378253
 H       -15.1818055522        1.6689555015        4.2163180306
 H       -13.6784533007       -0.9989282555        1.5998627555
 H       -15.1263116954       -0.1090695530        1.0146358344
 H       -15.1196476610       -0.9056613223        2.5714281501
 H        -9.0097575817        6.3203521930        1.6023520497
 H        -9.6272900358        5.0859265799        2.7388118538
 H       -10.6797228391        6.3426978510        2.1772802893
 H       -11.3044117510        6.1458924198       -0.7043382373
 H       -10.3490894497        4.8735070509       -1.4661722001
 H        -9.4844898920        6.2417285344       -0.7312958886
 H        -3.0283329936        1.6922235972       -3.1266973003
 H        -4.7096887895        1.6721691786       -3.7129387870
 H        -4.2660478309        0.5973909753       -2.3787699291
 H        -2.6495294978        2.6373005258       -0.9465883082
 H        -3.9224303572        1.7253133811       -0.1613927018
 H        -3.8522522149        3.4714589990        0.1254721275
 H        -5.7650771285        8.1683135303       -5.6986563905
 H        -6.8652741130        9.4789799253       -5.4932823315
 H        -7.3806150891        8.0676620396       -6.3315504046
 H        -6.7004335610        9.2543740641       -2.7015585029
 H        -5.3438773441        8.6777205555       -3.4159460835
 H        -5.9652803608        7.7147390708       -2.1087050589
 H       -10.7591070896        3.3438925716       -4.5724809785
 H       -10.9562136566        3.6009413217       -6.2624766809
 H       -12.0496179832        2.4781579630       -5.2359002822
 H       -14.1116706673        3.5155254461       -6.2231961774
 H       -12.8922433323        4.4622804319       -7.2162190102
 H       -14.2464463544        5.2596200890       -6.3044666086
 Na      -10.4312260278        2.0900753457        3.1420347658
