117

 C       -14.0643938102        5.9586730414       -3.5324448668
 C       -13.0975781856        4.7057374310       -3.8229832582
 O       -12.9274283211        3.8274910013       -2.9989210769
 C       -12.4257147240        4.6332953720       -5.2246821433
 C       -11.7463723344        5.9893106197       -5.4336547116
 O       -12.1578407171        6.8140843138       -6.1928271762
 C       -10.5257334769        6.2936460917       -4.4759193777
 C        -9.7202536072        7.5949659824       -4.8121029154
 C        -8.6342183959        7.8080630786       -3.7087429594
 O        -8.9872375473        8.0728587965       -2.5624125755
 C        -7.0871862586        7.6020981661       -4.0813110291
 C        -6.7195547999        6.1014271957       -4.2092893934
 O        -7.5205304095        5.2322854487       -4.1167464516
 C        -5.1035558345        5.7724880114       -4.3936222455
 C        -4.7933208980        4.3103940274       -3.9247436709
 C        -4.6819667000        4.1973670561       -2.3782150394
 O        -4.7705635617        5.1717335878       -1.6483496754
 C        -4.6312369961        2.6978720568       -1.7773833965
 C        -6.1587048855        2.4396439737       -1.5632753193
 O        -6.8164502771        1.8815106047       -2.4077137295
 C        -6.7218500687        3.0037107442       -0.2355340739
 C        -8.0512145160        3.6543554156       -0.4703352268
 C        -8.9893796234        3.7349259699        0.6901661965
 O        -8.8655179577        3.0207030459        1.6578016774
 C       -10.1767680512        4.7981905322        0.6834902275
 C       -11.5006584514        4.0148557147        1.0285399174
 O       -11.8879204978        3.8939117495        2.1902015044
 C       -12.3663882993        3.4727118991       -0.0999529170
 C       -13.5155638723        2.5902980250        0.5075822752
 C       -12.9280350740        1.5240600917        1.4088165590
 O       -11.7784377938        1.1393944249        1.2986162558
 C       -13.7852342869        0.8539342253        2.6380724383
 C       -12.8547860860        0.5228745679        3.7760450515
 O       -12.3795639904        1.4475308056        4.4593718789
 C       -12.3431285289       -0.9219307444        3.9943779471
 C       -11.5485264738       -1.0595087775        5.3346987112
 C       -10.4397331327        0.0293056658        5.4482801361
 O        -9.7813364032        0.1913880460        4.4597208941
 C       -10.0071630469        0.8623189384        6.7443567991
 C        -9.7793284260        2.3485901214        6.4461055818
 O        -9.4291683038        2.8179606332        5.3408779060
 C        -9.6854228844        3.2508612538        7.6493492951
 C       -10.9784694167        0.4859785082        7.8456570291
 C        -8.6108485967        0.3454950634        7.1724148039
 C       -14.7892991431        1.8672408421        3.3076329644
 C       -14.5412815155       -0.2813866556        1.9574681010
 C        -9.7686111989        5.7602004944        1.8010773204
 C       -10.4339881466        5.6623641810       -0.5697012122
 C        -4.1091989428        1.6595067391       -2.8013618456
 C        -3.7209878467        2.5377349528       -0.5158486661
 C        -6.8139578940        8.2692331798       -5.3962739457
 C        -6.2959301330        8.2498219683       -2.9488864753
 C       -11.4601573004        3.4471624717       -5.2555345678
 C       -13.5585376461        4.5683128397       -6.2913342543
 H       -13.4602466374        6.6537498039       -2.9214606806
 H       -14.9544581970        5.6421066264       -2.9699033589
 H       -14.3869786864        6.4433351823       -4.4261328638
 H        -9.9016929670        5.3888922651       -4.6305982457
 H       -11.0531956173        6.2171744328       -3.5097146246
 H       -10.3655147403        8.4550053830       -4.6650794733
 H        -9.3537126626        7.6036399149       -5.8413326268
 H        -4.5146560701        6.4858440668       -3.8069884201
 H        -4.9884267854        5.7701749267       -5.4566435137
 H        -3.8804325555        3.8630465429       -4.2400517713
 H        -5.5885606373        3.7034875067       -4.3399702908
 H        -5.8681792649        3.6584391850        0.1735394795
 H        -6.9006863115        2.0340294143        0.3440943534
 H        -8.5876110660        3.1555504361       -1.2397626541
 H        -7.9347387858        4.7021310691       -0.7966142768
 H       -11.8464705255        2.9212661548       -0.9462601369
 H       -12.8149793683        4.2901465976       -0.6765409850
 H       -14.0782246002        2.1527833813       -0.3765829960
 H       -14.2656460138        3.0600248245        1.0297227930
 H       -11.6905974972       -1.2283256134        3.1136556464
 H       -13.2015027891       -1.6438597068        3.8911029478
 H       -11.0257856334       -2.0083782179        5.2812170671
 H       -12.2949842340       -1.0763706221        6.1510174154
 H       -10.3365515559        4.1409235928        7.5675067261
 H        -8.6843540877        3.7284862234        7.5141259237
 H        -9.7772600422        2.7444878343        8.5958664554
 H       -12.0311770523        0.6748242917        7.5524640525
 H       -10.7218356042        0.9886508059        8.7385407642
 H       -11.0082641252       -0.5499700151        8.1451389838
 H        -7.9800549400        0.3647727060        6.3099785649
 H        -8.6743601547       -0.7142197907        7.5424523701
 H        -8.2203108471        0.9334961150        7.9753988073
 H       -15.7958769426        2.0207206022        2.8949960281
 H       -14.3144097488        2.7973205903        3.2791154582
 H       -14.9816002589        1.6271983946        4.3252690313
 H       -13.8247254636       -0.9217030273        1.4641357925
 H       -15.1269534692        0.1425432356        1.2077051110
 H       -15.2440537338       -0.9460732036        2.5184990416
 H        -8.9216790619        6.2928070724        1.4369358856
 H        -9.5468618869        5.1962986331        2.6584564710
 H       -10.6107750522        6.4478502341        2.0155593875
 H       -11.3680222258        6.2099916111       -0.4056673366
 H       -10.6204306900        4.9519555771       -1.4175412282
 H        -9.5993043272        6.3709241276       -0.7552230285
 H        -3.0325417757        1.6735274373       -2.8517723024
 H        -4.5165356543        1.8557131358       -3.8148213139
 H        -4.4783668301        0.6163690633       -2.5317803134
 H        -2.6081670961        2.5861385020       -0.7050571887
 H        -3.9040413338        1.4690125822        0.0072362284
 H        -3.9767835727        3.3349405493        0.2196270408
 H        -5.7318670890        8.1876234962       -5.5523079088
 H        -7.0922129778        9.2865425727       -5.4805952256
 H        -7.2925095499        7.8042471845       -6.2675078304
 H        -6.7900388427        9.2262883481       -2.8228063599
 H        -5.2828149232        8.5714725592       -3.1974454100
 H        -6.2407171411        7.6761911068       -2.0227345810
 H       -10.7006293483        3.5200946540       -4.4345206948
 H       -10.9341635142        3.4518587711       -6.1858551426
 H       -12.0659518907        2.5443124656       -4.9224416423
 H       -14.1861051649        3.6847534923       -6.0088283119
 H       -13.1194929529        4.5715728420       -7.2645925476
 H       -14.2796901806        5.4281334379       -6.0627437878
 Na      -10.4219477367        2.0541734851        3.1593421737
