117

 C       -13.7543133371        6.0671617774       -3.3284039174
 C       -13.1276912915        4.7137496731       -3.6758995353
 O       -12.9981749922        3.7788686901       -2.9169502385
 C       -12.4846825855        4.6482373082       -5.2239586989
 C       -11.6683256173        5.9176233131       -5.3552633395
 O       -11.9225608247        6.8074583543       -6.1308932219
 C       -10.4576456974        6.1539762732       -4.4298685684
 C        -9.6551590587        7.4030626844       -4.7994321082
 C        -8.6026750869        7.8096488052       -3.7588076180
 O        -8.9384377001        7.9197489127       -2.6249582776
 C        -7.0861523315        7.7623963703       -4.1084075386
 C        -6.6795545961        6.2056433676       -4.1584527523
 O        -7.5219689333        5.3127711780       -4.0200139631
 C        -5.1824784593        5.9191756146       -4.3911993175
 C        -4.7667845888        4.5246517151       -3.9180662628
 C        -4.6985274349        4.2404208760       -2.4214591411
 O        -4.6134379679        5.1243483065       -1.6020417503
 C        -4.6498317856        2.7842665395       -1.8661805565
 C        -6.1372222594        2.6801139785       -1.6321246943
 O        -6.8755660185        2.2251204895       -2.4926829275
 C        -6.8596720917        3.1156506791       -0.2275897782
 C        -8.2395075993        3.6712671238       -0.6402887143
 C        -9.1094797808        3.7373269678        0.6433213502
 O        -8.9087061925        2.9661864027        1.5760825774
 C       -10.2835829363        4.7815098375        0.7391970982
 C       -11.5745932720        3.9970052715        1.0894570133
 O       -11.7780326495        3.7623245740        2.2730165983
 C       -12.4051348408        3.4240484527       -0.0075569815
 C       -13.4690385575        2.4728773652        0.5012761493
 C       -12.8612832654        1.4497030227        1.5646386552
 O       -11.7096400337        1.1062589019        1.4000151242
 C       -13.7042718423        0.9030694602        2.6703419725
 C       -12.8461070171        0.4714022753        3.8434800446
 O       -12.4244760529        1.3727503397        4.5271724902
 C       -12.3839653170       -0.9924005162        4.0204007081
 C       -11.6142405795       -0.9608562219        5.3213189002
 C       -10.3846888746       -0.0358162089        5.3509639500
 O        -9.7442922966        0.1877982996        4.3286127304
 C        -9.9363907919        0.6636723825        6.6596934692
 C        -9.8395489438        2.2035893193        6.5081153167
 O        -9.8473644804        2.7318085659        5.4338172342
 C        -9.6167015639        3.0827976674        7.6620561200
 C       -10.9588995524        0.3876910377        7.7741248673
 C        -8.5643417823        0.0370122409        7.0113673098
 C       -14.8037178702        1.9053078281        3.1166094541
 C       -14.4595307551       -0.3105738310        2.0206150420
 C       -10.0224008522        5.7607222688        1.9487352530
 C       -10.3686173952        5.5003340684       -0.6504630716
 C        -4.1629279683        1.7403639799       -2.9140722867
 C        -3.7633721440        2.8260026842       -0.5770840095
 C        -6.8047061363        8.4202823133       -5.4309378006
 C        -6.2760832103        8.4140927761       -2.9779508857
 C       -11.5565867076        3.3749228058       -5.3186983378
 C       -13.5312264577        4.4570928354       -6.3487727638
 H       -13.0204722834        6.8340756117       -3.5068679509
 H       -14.1429568377        6.1466727309       -2.3207742615
 H       -14.6635712172        6.0739859850       -4.0099494809
 H        -9.8390800687        5.2703498105       -4.4958286598
 H       -10.9461476240        6.2895208726       -3.4579582438
 H       -10.2937417455        8.2983479835       -4.9166456650
 H        -9.0841755246        7.2516635213       -5.7099863335
 H        -4.5809267491        6.5776412366       -3.7389461742
 H        -4.9496611221        5.9089613421       -5.4941671959
 H        -3.7697661194        4.2583099474       -4.3319907760
 H        -5.4651667766        3.7737266159       -4.3438488807
 H        -6.1829247681        3.8060304840        0.1593197338
 H        -6.9299200044        2.2879546195        0.3947846744
 H        -8.8129568865        2.9785914619       -1.3442103369
 H        -8.1611944953        4.6452547043       -1.1126481975
 H       -11.7477035828        2.9937874324       -0.6968025273
 H       -12.9248841218        4.1672659021       -0.6242053214
 H       -13.9895306097        2.0653853971       -0.3013385182
 H       -14.2560538689        3.1978357689        0.9856121234
 H       -11.8046703800       -1.2545534632        3.1780691294
 H       -13.1690499179       -1.7114183541        3.9821513121
 H       -11.2683226214       -1.9571738447        5.6145461104
 H       -12.3552986654       -0.6666541453        6.0588299970
 H       -10.5009526664        3.6899297723        7.7170774584
 H        -8.9092475236        3.8627791608        7.3881912957
 H        -9.4221420966        2.4657892062        8.5944590054
 H       -11.8941090350        0.7163467291        7.4116156256
 H       -10.6183349509        0.7586779112        8.7698490920
 H       -11.2510680969       -0.6441657786        7.8881742405
 H        -7.9063870424        0.4685165518        6.2472819858
 H        -8.5616468046       -1.0037089750        7.0040298883
 H        -8.2888777397        0.2904811922        8.0778208075
 H       -15.3156296579        2.2355379578        2.2231375298
 H       -14.4423416391        2.8913178074        3.5899717716
 H       -15.5845740091        1.4871908736        3.7868061813
 H       -13.7078449734       -1.0670425454        1.7203043063
 H       -15.1275651817       -0.0912855575        1.1256356086
 H       -15.0921196616       -0.8005125982        2.7334813637
 H        -9.1149960506        6.3396408657        1.7673625495
 H        -9.9627234794        5.1424707558        2.8587790553
 H       -10.8796274036        6.3673128252        2.0349681754
 H       -11.2398223496        6.1268583634       -0.6275496498
 H       -10.3685871307        4.8563550679       -1.5013662903
 H        -9.4771403144        6.0852308375       -0.6948776569
 H        -3.2620473385        2.1141600943       -3.4615866851
 H        -4.9334277758        1.5201773654       -3.6452872154
 H        -3.8660952261        0.8588931811       -2.4143029250
 H        -2.7679315993        2.8795337185       -0.8233987086
 H        -3.9065886164        2.0276434380        0.0260609072
 H        -4.0005026719        3.7131763191       -0.0051995433
 H        -5.7984006070        8.2770605455       -5.8011448398
 H        -6.9165426415        9.5307369217       -5.2793542007
 H        -7.4604921073        8.2207030738       -6.2492230634
 H        -6.7230357891        9.3019926955       -2.5764760067
 H        -5.3132737831        8.7168259402       -3.3768828758
 H        -6.0685856552        7.6800277297       -2.2333123146
 H       -10.9204205083        3.3107095802       -4.4902161843
 H       -10.8914782776        3.5820401015       -6.1420596344
 H       -12.1220946940        2.5210735402       -5.3190836531
 H       -14.0499093218        3.5583116773       -6.3024954955
 H       -12.8386734749        4.4726464299       -7.2292668300
 H       -14.1862367695        5.2550178943       -6.2973609158
 Na      -10.3607038793        2.1872258328        3.1736372564
