117

 C       -14.7724329398        5.3825539924       -4.0360306926
 C       -13.3365392055        4.9291255563       -4.0497449670
 O       -12.7387176742        4.7569151218       -2.9894588245
 C       -12.5496225578        4.7570232968       -5.4437646824
 C       -11.6617887887        6.0878361875       -5.4383181726
 O       -12.1351053083        7.0736484960       -5.9511642365
 C       -10.3203080530        6.0987813634       -4.6208848566
 C        -9.6600429967        7.4071593128       -4.8152131509
 C        -8.6368058094        7.6671430157       -3.7186801079
 O        -8.9930627313        7.6913214595       -2.5233029189
 C        -7.1041571618        7.5004309895       -4.0721199605
 C        -6.8158543177        5.8989854121       -4.0587234342
 O        -7.6901489085        5.1464755036       -3.7354136938
 C        -5.4160601957        5.4172704541       -4.3705165621
 C        -5.2735797822        3.9407263654       -3.9498796583
 C        -4.9291331841        3.8030967690       -2.3932144361
 O        -4.9833288671        4.8110241957       -1.7156550320
 C        -4.6656373377        2.3598653396       -1.7865844277
 C        -6.0800835938        1.9523240410       -1.2599502049
 O        -6.6748675516        1.0647586731       -1.8134987416
 C        -6.6315919199        2.7124929128       -0.0366519550
 C        -7.8087427523        3.5691582858       -0.5515944377
 C        -8.9421514581        3.6935966595        0.5186191559
 O        -8.9242885343        2.8919776988        1.4345607608
 C        -9.9753936384        4.8231071770        0.6001860921
 C       -11.2373244390        4.0918537099        1.0725694215
 O       -11.5694794781        4.0965504388        2.2399693952
 C       -12.1828088231        3.4696223993        0.0145579164
 C       -13.4433296804        2.7436605829        0.6198384506
 C       -12.9386566217        1.6611779386        1.5844974220
 O       -11.8170938695        1.1966865932        1.3987771487
 C       -13.8664760405        1.0379236268        2.7250050802
 C       -12.8608640967        0.7747172437        3.8856016959
 O       -12.5138035699        1.6556162238        4.6549983325
 C       -12.3372243031       -0.6882660934        4.1090512819
 C       -11.4304579158       -0.7584869106        5.3919085874
 C       -10.3257658535        0.2853920890        5.4383412050
 O        -9.6508863925        0.4488263574        4.4079459762
 C       -10.0430660255        1.1709085318        6.7418205150
 C        -9.7534696072        2.7090952769        6.3757063863
 O        -9.5085698516        3.0912872263        5.2483569846
 C        -9.6001271723        3.6417147522        7.5331173152
 C       -11.1738152937        1.0523471769        7.8415743046
 C        -8.7186022011        0.6884852148        7.2832657810
 C       -15.0724114319        1.8768439945        3.1383819397
 C       -14.2772869195       -0.2679554818        2.0283070014
 C        -9.4186160371        5.7141424098        1.6860711596
 C       -10.1828624683        5.5041447745       -0.7521409259
 C        -4.0549556308        1.3444933871       -2.8835030348
 C        -3.7068964178        2.4204561683       -0.6190236241
 C        -6.6591218968        8.2289209736       -5.3872714534
 C        -6.3264206987        8.1127604671       -2.8899013152
 C       -11.7695078848        3.4143121573       -5.3716830051
 C       -13.4525146811        4.6496228988       -6.6956061924
 H       -15.3140539902        4.8752345930       -4.8614423379
 H       -14.7989524908        6.4107342935       -4.3674992106
 H       -15.2237153852        5.1087686175       -3.1202292737
 H        -9.7077085696        5.2323400935       -4.9114282372
 H       -10.5803352078        5.8340338655       -3.5983317249
 H       -10.2953830710        8.2821253549       -4.7623905705
 H        -9.1340401926        7.5590822704       -5.7551735524
 H        -4.6765719809        6.0898757909       -3.9383330651
 H        -5.3955616336        5.4330571858       -5.4870899354
 H        -4.4860873356        3.4781046905       -4.6443264316
 H        -6.1559197436        3.3282090026       -4.1613878805
 H        -5.8738985018        3.3940910611        0.3351576798
 H        -7.0553819633        1.8979412738        0.6248779057
 H        -8.2378569846        3.0377192669       -1.4268874547
 H        -7.5434246491        4.5577581426       -0.8413048159
 H       -11.5670119950        2.7017590122       -0.4745823129
 H       -12.3704675381        4.2016713807       -0.8064817984
 H       -14.0920801517        2.1107112343       -0.1320745232
 H       -14.1785898798        3.3716390466        1.0916992801
 H       -11.7791778518       -0.9351558464        3.1681428309
 H       -13.2157827766       -1.3815399119        4.1439731384
 H       -10.9129965929       -1.7551862394        5.3119456027
 H       -12.0307263026       -0.6986220923        6.3202370695
 H       -10.3335616154        3.5039413486        8.3520487745
 H        -9.4832690377        4.5939208798        7.1288834244
 H        -8.6676181318        3.4876595095        7.9900462821
 H       -12.0817916592        1.4486562759        7.4785532563
 H       -11.1408400726        1.7156138092        8.6862132955
 H       -11.2702964427        0.0216596987        8.1821868127
 H        -8.0281836236        0.7777329776        6.4202122167
 H        -8.7682472442       -0.4215416783        7.4769172472
 H        -8.2587051894        1.2516420310        8.0544918795
 H       -15.8034144165        1.8627920560        2.3548201526
 H       -14.7111720790        2.8746265860        3.2396522471
 H       -15.4838679954        1.5899837865        4.1229292843
 H       -13.4402318174       -0.8533318080        1.6976372176
 H       -14.8905645365       -0.1025395286        1.1119687490
 H       -14.8408972168       -0.8937641033        2.6461508201
 H        -8.5344515353        6.2613712938        1.3715012235
 H        -9.1764266523        5.0561702694        2.5360005850
 H       -10.1993015911        6.3838645262        1.9288109274
 H       -10.8914076258        6.3771212346       -0.6455855459
 H       -10.5373755117        4.8090817001       -1.5023592208
 H        -9.2328017820        6.0199295226       -1.0086567903
 H        -3.0904436039        1.7430589507       -3.2957475396
 H        -4.7907117852        1.2526497335       -3.6963695206
 H        -3.9137117305        0.3315486451       -2.4873304530
 H        -2.7448647788        2.6257952838       -1.1687234944
 H        -3.6328158766        1.4152715129       -0.1105087453
 H        -3.7995210619        3.1798217721        0.0913025974
 H        -5.6321892019        8.2083112275       -5.6678673880
 H        -6.8838206198        9.2863614599       -5.2629336978
 H        -7.2608136298        7.8800294051       -6.2513641477
 H        -6.5771571911        9.1499936691       -2.6640036993
 H        -5.2699891049        8.0740183942       -3.1956030509
 H        -6.3691690700        7.6441158455       -1.8654344010
 H       -11.2758980704        3.3827905589       -4.3858471877
 H       -11.0442141109        3.4011183208       -6.2474590273
 H       -12.3445324562        2.5376741381       -5.6549960576
 H       -14.2875076333        3.8639806679       -6.5234667761
 H       -12.8615387074        4.4071683933       -7.5514838501
 H       -13.7982548279        5.6474397056       -6.9327466489
 Na      -10.3901031537        2.1162356314        3.1877293487
