117

 C       -15.2095112616        5.0083958328       -4.3618446327
 C       -13.6433489411        4.9877056851       -4.2337637454
 O       -13.1548353443        5.0689457095       -3.1209502518
 C       -12.6748187239        4.9347987861       -5.4743518186
 C       -11.7400092218        6.1592762123       -5.5111590188
 O       -11.9521844276        7.0731280514       -6.2724983470
 C       -10.4253539748        6.0932141969       -4.6395337182
 C        -9.6547101136        7.4294419093       -4.7738425338
 C        -8.6050228803        7.5051775574       -3.5943181370
 O        -9.0195960232        7.7887535337       -2.4760307343
 C        -7.1411862115        7.1492285916       -3.8576296666
 C        -6.8359186234        5.5991524396       -3.8716100415
 O        -7.5351185397        4.8222282804       -3.1891871790
 C        -5.5544952164        5.0626785510       -4.5459794488
 C        -5.1098406537        3.6764620266       -4.1094088734
 C        -4.9285036655        3.4753080026       -2.6068413454
 O        -4.9490800938        4.3782494839       -1.8170109117
 C        -4.5396523364        2.0817822254       -2.0397430099
 C        -5.8987575740        1.6709832254       -1.3164453927
 O        -6.3989020653        0.6497099965       -1.6645003087
 C        -6.4941764561        2.4559351733       -0.1432892625
 C        -7.7490479955        3.2837528463       -0.4917675554
 C        -8.7360879485        3.4290112064        0.6422277261
 O        -8.7444061355        2.8178945230        1.6949508702
 C        -9.7793003504        4.6332107788        0.4260648959
 C       -11.2196413037        4.1824793356        0.9940159243
 O       -11.5350153954        4.3350569601        2.1705037803
 C       -12.2194242541        3.5045786767       -0.0849125954
 C       -13.4225668281        2.8700630319        0.7128374457
 C       -12.9288066687        1.7653539380        1.6395515196
 O       -11.7808095758        1.3679676642        1.4971480840
 C       -13.8557988132        1.1358000294        2.6579499217
 C       -12.9242129104        0.9190813660        3.9498259823
 O       -12.6381024964        1.8259222683        4.6732833305
 C       -12.2472250300       -0.5483928293        4.2470967939
 C       -11.4837031266       -0.4285140092        5.5714302112
 C       -10.4185079505        0.6739825426        5.5300076868
 O        -9.7783476322        0.8522095520        4.5196610929
 C       -10.1533277573        1.4761568540        6.8562611809
 C        -9.8739508845        3.1025554815        6.5481801634
 O       -10.3543886209        3.5728558168        5.5117382126
 C        -8.9918957953        3.9163445316        7.4138758543
 C       -11.1556245662        1.3848692677        7.9747683095
 C        -8.8370058466        0.9475509162        7.2516438137
 C       -15.1437048385        1.8177684993        3.0587168985
 C       -14.1639544024       -0.2668226877        2.1061602126
 C        -9.0873933986        5.8159126577        1.1233106896
 C        -9.9633260562        4.9975727364       -1.0752140057
 C        -4.1925289083        1.0534337154       -3.0818715467
 C        -3.4274667313        2.3149999568       -0.9689841389
 C        -6.6376414004        7.7938165378       -5.1907515721
 C        -6.3195581196        7.7146851563       -2.5970675111
 C       -11.8355230466        3.6809199968       -5.2562969331
 C       -13.4332293134        4.9527162532       -6.7892114626
 H       -15.6292253661        5.2599798675       -3.4433014347
 H       -15.5579735504        3.9890107111       -4.6014054892
 H       -15.4734717771        5.6470901681       -5.2338850403
 H        -9.7757133407        5.2604104581       -4.8702729884
 H       -10.8896276832        5.8639823628       -3.6688413207
 H       -10.3522201526        8.2972397260       -4.8225463414
 H        -9.1084942990        7.4138240637       -5.7329926374
 H        -4.7796085801        5.8602092696       -4.3421905220
 H        -5.7268159079        5.2558347590       -5.6200426538
 H        -4.2046479115        3.4616934807       -4.6822124446
 H        -5.8470812795        2.8276877005       -4.4280281748
 H        -5.8133070286        3.0540164979        0.3254527166
 H        -6.7315006415        1.7882503811        0.6472008858
 H        -8.3742115864        2.6745081024       -1.1855337637
 H        -7.6227317837        4.3229392344       -0.9139092782
 H       -11.6603481022        2.7272456349       -0.5749241939
 H       -12.6259356887        4.2502343140       -0.7520118265
 H       -14.0790954800        2.5074038749        0.0462381701
 H       -13.8720942095        3.6698429099        1.3239606090
 H       -11.6266549171       -0.6567736114        3.4066127593
 H       -13.0037076509       -1.2912890035        4.3970277200
 H       -10.9219627348       -1.3757763086        5.6042635680
 H       -12.0769448146       -0.3971681064        6.5014572067
 H        -8.9747259716        3.5617752425        8.4260809509
 H        -9.3237650359        4.8979444856        7.5035138310
 H        -7.9777437126        4.0343063721        7.0094019150
 H       -12.1418929036        1.7921368270        7.7271486674
 H       -10.7232259453        1.8524802753        8.9142923443
 H       -11.4102817872        0.4125055326        8.3716962305
 H        -8.1190967132        1.1093751322        6.4129997993
 H        -8.7511560038       -0.0367219514        7.6300338648
 H        -8.4401003204        1.5579734347        8.1525477504
 H       -15.8598023435        1.5916754530        2.3115105852
 H       -15.0187823993        2.8973916938        3.3546595700
 H       -15.4439687714        1.2404560065        3.8994905934
 H       -13.2533951088       -0.8002285704        1.8704141820
 H       -14.7992942629       -0.2829837444        1.2410726560
 H       -14.7183451894       -0.8505800443        2.8222069117
 H        -8.1798625107        6.1045699385        0.5774498278
 H        -8.8273940845        5.5725323407        2.1649554557
 H        -9.7811528044        6.6418316182        1.1229369381
 H       -10.7072013686        5.8018618273       -1.1065764149
 H       -10.2995606077        4.2007786855       -1.7857934977
 H        -9.0201983659        5.3037604608       -1.5486349443
 H        -3.2585127309        1.3837209934       -3.5855703944
 H        -4.9863029653        0.9103513518       -3.8263766264
 H        -3.9006929715        0.1480356469       -2.5622379766
 H        -2.5107868891        2.6701071978       -1.4001660849
 H        -3.2319243473        1.4663334776       -0.4017267477
 H        -3.7719112264        3.0096909974       -0.3763852803
 H        -5.5470195274        7.6307751336       -5.2460863485
 H        -6.8974957200        8.8730147299       -5.2639677972
 H        -7.0640950424        7.3044406941       -6.0208626727
 H        -6.3158762922        8.8233697896       -2.4434288039
 H        -5.2726064642        7.3777962391       -2.3867732529
 H        -6.8191727744        7.2628480049       -1.7393306837
 H       -11.3328516133        3.7141075456       -4.2584845168
 H       -11.0432093422        3.6820086469       -6.0494348640
 H       -12.4654002180        2.7876770189       -5.1998683374
 H       -14.0732079754        4.1582854669       -7.0122442004
 H       -12.6079452626        4.8006445459       -7.5457261738
 H       -13.9151517551        5.8795196400       -6.9279144533
 Na      -10.4895167643        2.5779618840        3.3587773815
