117

 C       -15.1490447127        5.0421321516       -4.4939848420
 C       -13.6328167705        5.0184256898       -4.2042637154
 O       -13.1727811145        5.0660432105       -3.0722771486
 C       -12.6943921472        4.9240928075       -5.5122440724
 C       -11.7639995273        6.2108373852       -5.4771966032
 O       -11.9079463846        7.0700992413       -6.3092167304
 C       -10.5850968542        6.1841979497       -4.5599605753
 C        -9.5710566066        7.3509471940       -4.7024013459
 C        -8.5753806296        7.4399005406       -3.5461601468
 O        -8.9988624526        7.6929408812       -2.4350701695
 C        -7.1190591199        7.1072544624       -3.8160018648
 C        -6.8684317942        5.5810543015       -3.8701810045
 O        -7.6375300407        4.8877494220       -3.2587302941
 C        -5.6109999941        5.0902926625       -4.5419807085
 C        -5.2799816757        3.6630768175       -4.1254979125
 C        -4.8680179397        3.4837687816       -2.5552287942
 O        -4.8842115062        4.4434231425       -1.8045499036
 C        -4.5424550764        2.0554702101       -1.9941506877
 C        -5.8664831290        1.5365285164       -1.2844075394
 O        -6.4071106715        0.5328591568       -1.7140011353
 C        -6.4134916014        2.3625552563       -0.1232835911
 C        -7.7113251690        3.1467009065       -0.5500129519
 C        -8.7300747180        3.4522701043        0.5954545203
 O        -8.6669480066        2.8723003150        1.6632231492
 C        -9.8103572946        4.6318050859        0.3654211876
 C       -11.1660859216        4.2171667048        0.8798525904
 O       -11.5153773600        4.3642782536        2.0390342807
 C       -12.1401612532        3.5641378034       -0.0535840400
 C       -13.3936115432        2.9840526357        0.7516758245
 C       -12.8619023444        1.8281623132        1.6280463686
 O       -11.6988371916        1.4196924727        1.5036454727
 C       -13.8254952256        1.0432685619        2.7469370993
 C       -12.8771823061        0.9790869446        3.9812911508
 O       -12.6867416185        1.9692975515        4.6442731623
 C       -12.3553706423       -0.4469957934        4.3057931581
 C       -11.4463080851       -0.4559539274        5.5477126952
 C       -10.5257816683        0.7952434058        5.6166770888
 O        -9.7635245407        0.9414294188        4.6637088674
 C       -10.0890206289        1.6509885349        6.8817141556
 C        -9.8900743975        3.1291703839        6.5016810975
 O       -10.4180296793        3.7088759413        5.5625418404
 C        -8.9537941095        3.9450036462        7.4470191637
 C       -11.1472224573        1.4520798421        8.0016651444
 C        -8.7549168179        0.9089626826        7.2800180467
 C       -15.1496606424        1.7408935400        3.0607173466
 C       -14.2117062852       -0.3563182879        2.0997574809
 C        -9.1593497091        5.8669021377        1.0744692253
 C        -9.9578236438        4.8515104238       -1.1735256351
 C        -4.1909648449        0.9154376983       -3.0574626598
 C        -3.4432877895        2.2361893015       -0.9410141586
 C        -6.5769376374        7.8514659975       -5.1097787677
 C        -6.2843244342        7.5433205821       -2.6583396908
 C       -11.8970307430        3.5758469661       -5.3302107877
 C       -13.4897888982        4.9030909921       -6.8270031054
 H       -15.7002465671        4.7048608850       -3.5778608881
 H       -15.3887733700        4.3963830706       -5.3403856967
 H       -15.3775983054        6.0495897178       -4.7936633654
 H       -10.0890678637        5.2305032573       -4.6709893026
 H       -11.1393543839        6.1085760987       -3.5731887922
 H       -10.1411264698        8.2882065048       -4.7221864884
 H        -9.0090477278        7.2956605723       -5.6649882869
 H        -4.8288410307        5.8507698847       -4.4279128056
 H        -5.8290149549        5.2396912913       -5.6092698486
 H        -4.5247747698        3.3998493535       -4.8404936303
 H        -6.1299620505        2.9752744122       -4.3293377205
 H        -5.6563216127        3.0614358791        0.2112714613
 H        -6.5029813057        1.8375054393        0.8783697403
 H        -8.2764335962        2.5162003452       -1.2736796029
 H        -7.4901731650        4.1091545881       -1.0013812733
 H       -11.5719212618        2.7252450991       -0.3835164972
 H       -12.4557994662        4.2436523528       -0.8448467811
 H       -14.1325923357        2.4892521901       -0.0291443728
 H       -13.8378835605        3.7456315304        1.3498858651
 H       -11.8950365378       -0.5736543219        3.3636967565
 H       -13.2101960581       -1.0904735057        4.5066777662
 H       -10.8362260665       -1.3399562296        5.4478631787
 H       -11.9569304429       -0.5593523678        6.4744367000
 H        -9.1108158136        3.6624488373        8.5414447958
 H        -9.1384728560        5.0088768407        7.4739636362
 H        -7.9225930901        3.8377933334        7.1637673703
 H       -12.1468604454        1.6806864884        7.6924550238
 H       -10.8510265833        1.8627518289        8.9964366270
 H       -11.3040730696        0.4055144133        8.3084678808
 H        -7.9619286718        1.0232021952        6.5105121939
 H        -8.9571967362       -0.1838448525        7.3969267354
 H        -8.3674466333        1.1491188866        8.2400466270
 H       -15.7312500429        1.7438063952        2.1494622190
 H       -14.9342541798        2.6875964013        3.5383021213
 H       -15.7150849673        1.0225128481        3.7391967690
 H       -13.4357829869       -0.9517718475        1.6306279671
 H       -14.9444216892       -0.0873439777        1.2845034719
 H       -14.7942325864       -0.9677292723        2.7011466782
 H        -8.3146592604        6.2263524156        0.4341967052
 H        -8.7739653862        5.6021680336        2.1107967469
 H        -9.8823121875        6.6521342762        1.1985313764
 H       -10.5546208279        5.7878359088       -1.2709633533
 H       -10.4233042531        4.1262254674       -1.7922543833
 H        -8.9921062576        4.9819685592       -1.6578041738
 H        -3.1521038638        1.0465286104       -3.4335177062
 H        -4.8563525476        0.9872943996       -3.9051495308
 H        -4.2519486037       -0.0483180547       -2.6107316881
 H        -2.5828316895        2.4122806088       -1.4565717989
 H        -3.2765302301        1.2704244046       -0.4595772564
 H        -3.5639612176        3.0082098145       -0.1616032274
 H        -5.5037433007        7.7921667629       -5.2026845231
 H        -6.9545188748        8.8826935863       -5.2446182613
 H        -7.0468760567        7.2748008421       -5.9027777754
 H        -6.3746197260        8.6094654864       -2.5828047698
 H        -5.2161974635        7.3436136708       -2.6390808511
 H        -6.6005965282        7.0826559503       -1.6798895845
 H       -11.3899909024        3.5506307881       -4.3913939065
 H       -11.0926049775        3.6794805246       -6.0849453891
 H       -12.4836627809        2.7295860669       -5.3800127604
 H       -14.2571364449        4.0813825825       -6.9148774482
 H       -12.8241817414        4.7471314236       -7.6251585651
 H       -14.0319094656        5.7985589443       -6.9582875810
 Na      -10.5359029353        2.6187683944        3.3579845263
