117

 C       -15.1190085355        5.3784803719       -4.4508998210
 C       -13.6009989457        5.0753591762       -4.2773436214
 O       -13.1862641841        4.7776155977       -3.1630638352
 C       -12.7297574282        4.9163978057       -5.5490747124
 C       -11.7266265895        6.2226140056       -5.5376328099
 O       -11.6667961063        7.0212964948       -6.4416303784
 C       -10.8661104779        6.2575982014       -4.2546350685
 C        -9.5880454915        7.0538264027       -4.5473632496
 C        -8.6086385749        7.2850895336       -3.4307613773
 O        -8.9685464698        7.5689788401       -2.3092634501
 C        -7.0093836016        7.0218426147       -3.7095551657
 C        -6.9765004467        5.4571147240       -3.9476504343
 O        -7.9277924627        4.7493885708       -3.9179294553
 C        -5.5891329153        4.8467371741       -4.3791029234
 C        -5.5291319658        3.4178675121       -3.8874273875
 C        -4.8513691088        3.3301357386       -2.5287317878
 O        -4.6041308789        4.3225412477       -1.8714588096
 C        -4.6008673940        1.8412260044       -1.9388646593
 C        -5.9777506370        1.3647731642       -1.3872454405
 O        -6.5592263926        0.3281432286       -1.7029998593
 C        -6.5494513433        2.2113234354       -0.1185573650
 C        -7.8595787230        2.9464195362       -0.5865643538
 C        -8.7533482541        3.4889068107        0.5308956150
 O        -8.7061445249        3.0680515214        1.6677853441
 C        -9.7874786589        4.5404272806        0.1075521005
 C       -11.2042502622        4.2774839977        0.7764251983
 O       -11.4593385004        4.4791907500        1.9415012350
 C       -12.2850309029        3.5648505035       -0.1166110006
 C       -13.3574767960        2.9704248141        0.7781876048
 C       -12.7906703301        1.8314007636        1.5873961939
 O       -11.5881635077        1.5099555542        1.6068923216
 C       -13.7213737543        1.0650655647        2.6528346229
 C       -12.9311814680        1.0325285053        4.0180855744
 O       -12.8047388657        2.0342092123        4.6901283688
 C       -12.2492328328       -0.3321159725        4.4319150856
 C       -11.6459181140       -0.2259830615        5.8137321850
 C       -10.4930250154        0.8861987487        5.7438218951
 O        -9.9540139216        1.0176152480        4.6531929891
 C       -10.0088976609        1.7869143934        6.9510544128
 C        -9.6719384803        3.2730164548        6.5462734314
 O        -9.9718929530        3.8120594828        5.5082187533
 C        -9.0600463019        4.1524827882        7.5798493456
 C       -11.1089544180        1.7969598387        8.0621409492
 C        -8.7671157011        1.0633854949        7.5501102929
 C       -15.1663692198        1.8075666777        2.9105782769
 C       -14.1282029429       -0.2618558211        2.0677957482
 C        -9.1656897006        5.8765414510        0.5780848503
 C       -10.0039722792        4.5706993600       -1.3735312665
 C        -4.1043560166        0.7344705486       -2.9743115346
 C        -3.5312023388        2.0694779887       -0.8791449834
 C        -6.5531286211        7.7884344864       -5.0110336051
 C        -6.2854915706        7.3869792788       -2.4456675258
 C       -11.9260935276        3.6114590671       -5.4692625606
 C       -13.4400719836        4.9781550454       -6.8874094127
 H       -15.7313753620        4.4426825119       -4.4884787223
 H       -15.1315421531        5.9445826877       -5.3386783946
 H       -15.4713669794        5.9055151500       -3.6224003091
 H       -10.6826852615        5.2704147954       -3.8576569078
 H       -11.4033712731        6.9366360526       -3.5703260124
 H        -9.9316255272        7.9896917469       -4.9874663161
 H        -8.9668086596        6.5321253828       -5.3273846835
 H        -4.7883923602        5.5195610007       -4.0069728256
 H        -5.5903399610        5.0160370887       -5.4868668622
 H        -4.8732725828        2.9759854501       -4.6710146611
 H        -6.5569757272        2.9596607898       -3.9174904245
 H        -5.8467092080        2.8773865844        0.3960286718
 H        -6.7016373607        1.5213484241        0.6582232662
 H        -8.5041445292        2.2147668064       -1.1490199711
 H        -7.5789699612        3.7360977808       -1.2902616066
 H       -11.8633802886        2.7653957945       -0.6850166446
 H       -12.6916979977        4.3488893326       -0.7539073821
 H       -14.3077332903        2.6485263017        0.1573483728
 H       -13.5947276204        3.6794461442        1.4879004913
 H       -11.5132940959       -0.4814686501        3.6738416212
 H       -13.0777102879       -1.0003407274        4.3935818987
 H       -11.3401104040       -1.1780106048        6.2982321567
 H       -12.2782337467        0.2691774481        6.5364748494
 H        -9.6719112291        4.2988402212        8.4547341345
 H        -9.1834663745        5.1388122059        7.1329214610
 H        -8.0782183738        4.0005390787        7.8416068111
 H       -12.0424973209        2.2102615245        7.6810177546
 H       -10.7713964913        2.2138161216        9.0156766460
 H       -11.4509855441        0.7697607542        8.2909835611
 H        -7.9106019464        0.8920510192        6.8660880574
 H        -8.9965823811       -0.0197312348        7.8701149108
 H        -8.4075321792        1.5876115560        8.3993664144
 H       -15.8174251415        1.6622680596        2.0645310992
 H       -14.9535643462        2.8097114023        3.0523142003
 H       -15.5737678831        1.2971227934        3.8143592495
 H       -13.2640051314       -0.8866532117        1.9332613014
 H       -14.5509612287       -0.1490562557        1.0419635363
 H       -14.8205545995       -0.7703162431        2.6773760465
 H        -8.1180077716        5.8418787132        0.3237512583
 H        -9.2971983423        6.0092186986        1.6436133192
 H        -9.5603867248        6.7505037131        0.1015381091
 H       -10.7879204099        5.3272209012       -1.6838313355
 H       -10.3544883839        3.5984253375       -1.7119610831
 H        -9.1630670308        4.8630175862       -2.0344538728
 H        -3.7392022617        1.1597074633       -3.9283316727
 H        -4.9560566515        0.1007738258       -3.2333581942
 H        -3.4527760443        0.0086623201       -2.5012546123
 H        -2.6958568695        2.4017444089       -1.3783572912
 H        -3.2803389587        1.2116374505       -0.4464422403
 H        -3.7540328886        2.8032288468       -0.1267485478
 H        -5.5891441329        7.4296544015       -5.2867023918
 H        -6.4741865360        8.8598503337       -4.8970466245
 H        -7.3317211328        7.5360203079       -5.7498065192
 H        -6.3199893555        8.4756415231       -2.3726294748
 H        -5.2066547601        7.2020653229       -2.5310477323
 H        -6.5403142404        7.0146260529       -1.4096830729
 H       -11.3635556383        3.5308898385       -4.4991015372
 H       -11.0610260353        3.5881038586       -6.1993955660
 H       -12.6658900100        2.7902056048       -5.6393850431
 H       -14.2729247643        4.2437337866       -6.8550618251
 H       -12.7911720416        4.8713819913       -7.6464344344
 H       -13.9612231345        5.8852436019       -7.0924044364
 Na      -10.2694683047        3.0958855868        3.4324093956
