117

 C       -14.6115356913        6.1258316516       -4.1959044876
 C       -13.4938634176        5.0527197757       -4.3460677190
 O       -13.1134784595        4.5074511428       -3.3375967384
 C       -12.7565076950        4.9736398817       -5.7142357792
 C       -11.7131907538        6.2132559720       -5.7845599528
 O       -11.7750588605        7.0269696543       -6.6516523000
 C       -10.7833836291        6.4006408236       -4.5835349223
 C        -9.3706505978        7.1445756151       -4.8740037216
 C        -8.5349862268        7.1285085154       -3.5594726461
 O        -9.0965864409        7.4636078825       -2.5152299123
 C        -7.0749661639        6.6413369557       -3.6439773432
 C        -6.9160339686        5.1190350069       -3.9696126832
 O        -7.9533882848        4.4612563390       -4.0009258328
 C        -5.4776167564        4.5482927126       -4.2713039449
 C        -5.3101823778        3.1407148155       -3.8595647633
 C        -4.8963679652        3.0338117246       -2.3864556294
 O        -4.8274772152        4.0228245071       -1.6650424456
 C        -4.6266618070        1.6123138816       -1.8039356761
 C        -6.1422594620        1.2517734309       -1.3276736828
 O        -6.6726113404        0.3126780477       -1.8837346827
 C        -6.7820153214        2.0144114647       -0.1916195973
 C        -7.9090289684        2.7896000663       -0.7616986392
 C        -8.8930407849        3.3740154530        0.2356499215
 O        -8.8087840319        3.0710594429        1.4253318560
 C        -9.9283870007        4.4209686370       -0.2132605640
 C       -11.2434539986        4.1513707106        0.6560791335
 O       -11.3695048825        4.4613008996        1.8504195615
 C       -12.5097285108        3.5685589645       -0.0821135800
 C       -13.5877288573        3.0583130081        0.9459911846
 C       -12.9299676908        1.9621005263        1.7076739201
 O       -11.7882702876        1.6418360793        1.4456095582
 C       -13.7260524644        1.1689776011        2.7422297773
 C       -12.8704489912        1.2598661947        4.0187437336
 O       -12.6745485310        2.3524755560        4.5073812600
 C       -12.3881436460        0.0067665074        4.7156030678
 C       -11.6368441115        0.2408635675        6.0830453877
 C       -10.4860927546        1.1712306618        5.9651889148
 O        -9.8361080483        1.2103877094        4.9642921706
 C        -9.9413204069        2.1403564137        7.1468541468
 C        -9.4431121206        3.5158612565        6.6117504641
 O        -9.4105746252        3.8204855346        5.4302384758
 C        -9.0566157467        4.5116819445        7.6324439495
 C       -11.1146728546        2.3256692286        8.1729634717
 C        -8.7598878180        1.3369547697        7.8358163895
 C       -15.0664786224        1.7588291939        3.0180709403
 C       -13.7542398217       -0.3359216737        2.2380766810
 C        -9.4214679343        5.8162331396        0.2782924158
 C       -10.2368200552        4.4569584520       -1.6965334738
 C        -4.1300801428        0.5919586975       -2.8230786357
 C        -3.7199296601        1.7242211360       -0.5784443185
 C        -6.2805302089        7.4996969015       -4.6655270325
 C        -6.3710388928        6.7386782690       -2.2803950356
 C       -11.9089045612        3.7072658760       -5.7213668273
 C       -13.8036158387        4.9897731083       -6.8073411974
 H       -14.4569539993        6.8651464123       -4.9510106356
 H       -14.5643795658        6.5187590802       -3.1819454790
 H       -15.5193433107        5.5471860154       -4.3751083653
 H       -10.4901919531        5.3643731646       -4.3961812285
 H       -11.2664756405        6.8908910360       -3.7243916932
 H        -9.5350063063        8.1680514969       -5.2834664150
 H        -8.9337843366        6.5184790301       -5.6418809299
 H        -4.8575595955        5.2765091037       -3.7606234926
 H        -5.3405462116        4.6351654779       -5.3530266185
 H        -4.6410474262        2.7538100936       -4.5826705441
 H        -6.2964983747        2.7004977044       -4.0048285873
 H        -6.0178645788        2.6974762866        0.2756142627
 H        -7.2121355424        1.1549836847        0.5115531086
 H        -8.4923704605        2.1684139270       -1.4128033442
 H        -7.5114325746        3.5228857912       -1.4990871344
 H       -12.1522473486        2.7972463862       -0.7912958132
 H       -12.9025943980        4.3016471753       -0.7482313991
 H       -14.5383672213        2.7164300824        0.4871349256
 H       -13.9081206051        3.9429001547        1.5718632796
 H       -11.8612063607       -0.6574179009        4.0015741842
 H       -13.2254636268       -0.6330069011        5.1090160631
 H       -11.2745892798       -0.7211979992        6.3582014934
 H       -12.2080602532        0.5531440317        6.9383770058
 H        -9.9123431355        5.1184683470        8.0200402575
 H        -8.3108795883        5.1142787950        7.1610159275
 H        -8.6491471379        4.0384030372        8.5357305786
 H       -11.8412355816        2.9609949488        7.7530088178
 H       -10.8437508155        3.0812081221        8.9641131325
 H       -11.3568739238        1.3753326911        8.6683435735
 H        -7.9057476539        1.2214174396        7.1219783709
 H        -9.0830254095        0.3899066995        8.2171202049
 H        -8.2552236555        1.8647728505        8.6954375082
 H       -15.6810595414        1.5591012980        2.1668515767
 H       -14.9552392609        2.8258646055        3.3240593660
 H       -15.3603401368        1.1691408360        3.8651420460
 H       -12.7822795784       -0.7986626349        2.2252696579
 H       -14.1922419037       -0.3524157484        1.2485955102
 H       -14.3792321846       -0.8886635656        2.8968543389
 H        -8.4204267094        6.0897469875       -0.0946924019
 H        -9.3112354350        5.8223121013        1.3822529988
 H       -10.0753377188        6.5724520470       -0.0432773593
 H       -10.9548893598        5.2469203554       -1.9770971308
 H       -10.7522648838        3.4998835957       -1.9633438683
 H        -9.3363796811        4.5937444845       -2.3332033487
 H        -3.0372576316        0.7179902292       -2.9982972675
 H        -4.6294229011        0.6513240926       -3.7927642025
 H        -4.1684226149       -0.3994497164       -2.4045772235
 H        -2.6866801727        1.9334801704       -0.7661495704
 H        -3.7869139199        0.8735769408        0.1028620558
 H        -4.0823469935        2.6621168830        0.0363559367
 H        -5.2458081808        7.1758423749       -4.7375357448
 H        -6.3494922070        8.5228853973       -4.2610928244
 H        -6.6972721972        7.3982494856       -5.6196713388
 H        -6.2384970894        7.7709634325       -1.9081083746
 H        -5.3127943207        6.3730880793       -2.3140218924
 H        -6.8760056576        6.2397676833       -1.4184343306
 H       -11.2328890722        3.6405140604       -4.8672922405
 H       -11.4403317094        3.5880946509       -6.7350451665
 H       -12.4685916844        2.8100125152       -5.6649856830
 H       -14.5103403897        4.1527727540       -6.6312979069
 H       -13.4420891510        4.7015020075       -7.7969830518
 H       -14.2993020993        5.9171126640       -6.8224022234
 Na      -10.1955281055        3.2971794015        3.5068604854
