117

 C       -15.0006625989        5.7826676294       -4.2280578342
 C       -13.6630852107        4.9965740430       -4.2546434963
 O       -13.2368152819        4.5410939770       -3.2178184215
 C       -12.7240253054        4.9837401365       -5.5897867318
 C       -11.8294991443        6.2472247193       -5.5880124855
 O       -11.6784306395        6.8405751221       -6.6205270453
 C       -10.8808840233        6.4175834480       -4.4262854972
 C        -9.5527803919        7.2454609222       -4.7019328102
 C        -8.5797685436        7.2125807934       -3.5080901497
 O        -9.0098116745        7.6019885631       -2.4294914039
 C        -7.0944276808        6.7880052354       -3.6379166869
 C        -6.9501679066        5.2407593973       -4.0839897388
 O        -7.9815599829        4.6119182224       -4.0871577749
 C        -5.5785726650        4.5888907050       -4.3370243838
 C        -5.3327943650        3.1704006922       -3.8413228347
 C        -4.8361309977        3.1339997931       -2.4186892304
 O        -4.6915538647        4.1566064432       -1.7844554342
 C        -4.5872641166        1.7020780156       -1.8190341006
 C        -5.9685392433        1.2333183863       -1.2226116976
 O        -6.6869933544        0.4487537069       -1.7972475237
 C        -6.6060032846        2.0925411099       -0.0780081539
 C        -7.8962990937        2.7348286993       -0.6816921840
 C        -8.8229339646        3.4207832767        0.3568611650
 O        -8.7670246306        3.0712901821        1.5147135898
 C        -9.8833530922        4.5520403035       -0.0890467488
 C       -11.2064194439        4.1885002084        0.6451404277
 O       -11.3634979322        4.5718037926        1.7993994691
 C       -12.4299979369        3.6678111198       -0.1190766556
 C       -13.4657417263        2.9438198604        0.7490749794
 C       -12.8016553613        1.9447347299        1.7434261533
 O       -11.5686631416        1.7449529161        1.7736654435
 C       -13.7221860794        1.1355469246        2.7203149045
 C       -12.8710272473        1.1249784419        4.0141833002
 O       -12.7175294669        2.1055709577        4.6856454513
 C       -12.2992263941       -0.2203375857        4.6718620545
 C       -11.6411845302        0.0867561124        5.9556772728
 C       -10.5740880280        1.2100955162        5.7737505508
 O        -9.8982526241        1.3338669175        4.7758634274
 C       -10.1046587270        1.9736752530        7.0285120313
 C        -9.5010578939        3.4558119089        6.6493830307
 O        -9.3357986509        3.8069905666        5.5053390307
 C        -9.0795321633        4.3633504575        7.8798414545
 C       -11.1896863386        2.0364384897        8.1160154893
 C        -8.8147228023        1.2082944080        7.5686690346
 C       -15.1718939679        1.7776015501        2.9511009545
 C       -13.9013431370       -0.2612604891        2.0908778506
 C        -9.2986995462        5.8502729752        0.4030419574
 C       -10.0551647287        4.4088292066       -1.6276177677
 C        -4.1540389951        0.6614089619       -2.8502247311
 C        -3.6482859442        1.7758672372       -0.6508204298
 C        -6.4714027632        7.7667868548       -4.7941970756
 C        -6.3847212346        7.0794917624       -2.3584688093
 C       -11.8093893432        3.7299600493       -5.5640808144
 C       -13.4962895126        5.0631258878       -6.9243847916
 H       -15.4220568385        5.7751150689       -5.2640403792
 H       -14.7960478917        6.7805700255       -3.8441493286
 H       -15.6409100063        5.1477309640       -3.6284933539
 H       -10.5772840456        5.4399223985       -4.1043138195
 H       -11.4695661719        6.9829673234       -3.6649540394
 H        -9.7367923923        8.3296109028       -4.7932885974
 H        -9.1160659669        6.9069593608       -5.6553300466
 H        -4.8249378178        5.2944689266       -4.0073363755
 H        -5.6408029689        4.6879558348       -5.4018416021
 H        -4.5817243726        2.8618609448       -4.5038638961
 H        -6.2761851400        2.5635912244       -3.9311744163
 H        -5.9186434175        2.7925484065        0.3120237070
 H        -6.8868550828        1.4912145243        0.7674948300
 H        -8.4563009801        1.9519452655       -1.2184065277
 H        -7.6164817687        3.4767600211       -1.4828813751
 H       -12.1225416412        3.0096710466       -0.9749278025
 H       -12.8719661119        4.5922767885       -0.5977848241
 H       -14.1476113752        2.4823911500        0.0269185743
 H       -13.9869395189        3.6235901898        1.3057421091
 H       -11.6042652541       -0.6941393902        3.9530382371
 H       -13.2010283658       -0.8816351380        4.8623811860
 H       -11.1280494620       -0.7378491120        6.5170063661
 H       -12.3125723926        0.4622158238        6.7531200513
 H        -9.8789486738        4.2462816403        8.6978954828
 H        -9.0282798698        5.4594403963        7.7089469698
 H        -8.1780869709        3.9528256934        8.3028832790
 H       -12.0519486930        2.5919147448        7.8045142906
 H       -10.9311540400        2.4585811492        9.1186405439
 H       -11.4841138089        0.9806410589        8.2637861778
 H        -7.9384818381        1.1665218127        6.9361061741
 H        -9.1213262345        0.1802390324        7.7379756332
 H        -8.5035969465        1.6086301446        8.4856931601
 H       -15.4473143922        2.0335003896        1.9593589199
 H       -15.0556185748        2.6652932918        3.5697610448
 H       -15.8110578829        0.9821138548        3.3954556125
 H       -12.9291733877       -0.6598087940        1.7316511544
 H       -14.6059438979       -0.1944611098        1.1887043110
 H       -14.2825434427       -0.9385734369        2.8137260039
 H        -8.3021831120        6.0575161143       -0.0487336154
 H        -9.2194063175        5.7897231716        1.5216501506
 H        -9.9053072543        6.6916063964        0.1983582597
 H       -10.9591853592        4.8368260304       -2.0412314750
 H       -10.0803117256        3.4119006922       -1.9333517151
 H        -9.3262188399        4.9900840851       -2.1354159128
 H        -3.2718098041        0.9514316417       -3.4780557553
 H        -4.9546959846        0.4652657761       -3.5416057221
 H        -3.9585034833       -0.2559927067       -2.3640922384
 H        -2.6151257960        1.9145839043       -0.9687039174
 H        -3.6839401916        0.9047832586       -0.0045941760
 H        -3.8570591733        2.7484553486       -0.0022002240
 H        -5.3900937175        7.6602477078       -4.8361107164
 H        -6.7172621272        8.8431030674       -4.6177767451
 H        -6.8681851753        7.3786211298       -5.7258643831
 H        -6.5372758880        7.9821295377       -1.8811338508
 H        -5.3372460574        6.9584766524       -2.5018012012
 H        -6.6392903283        6.3672414462       -1.5771735633
 H       -11.4461498048        3.6631466645       -4.5543581999
 H       -10.9714161526        3.6453042312       -6.2839254653
 H       -12.3733187071        2.8785802850       -5.7593671311
 H       -14.2663508877        4.2095053232       -7.1808275482
 H       -12.7688388768        5.2116523493       -7.6928027906
 H       -14.0612541667        6.0036782561       -7.0190262986
 Na      -10.2805886760        2.8813951484        3.1840945351
