117

 C       -15.0471243389        5.6613318688       -4.3975864930
 C       -13.6488269031        4.9950070686       -4.3086474831
 O       -13.2154639087        4.6067087729       -3.2421684804
 C       -12.7346882094        4.9630965460       -5.4898646757
 C       -11.6418577800        6.1947618372       -5.5222824630
 O       -11.6259037656        6.8869104104       -6.4983704208
 C       -10.8120412706        6.4181513790       -4.2263261803
 C        -9.5768372285        7.1781124554       -4.7816900819
 C        -8.6335051305        7.3312125432       -3.4961133350
 O        -9.0845884278        7.5754518908       -2.3909012568
 C        -7.0966463362        6.8536228028       -3.7019100559
 C        -7.0029116643        5.3405235519       -4.0214805325
 O        -8.0039143223        4.5871023006       -4.0847051294
 C        -5.6031345667        4.7376470326       -4.3515606061
 C        -5.4002732278        3.2614777458       -3.9893551543
 C        -4.8652163181        3.1157051713       -2.4775000425
 O        -4.6385763737        4.1171346238       -1.8421287192
 C        -4.5851240863        1.7049171424       -1.7933090509
 C        -6.0382148702        1.3676298175       -1.2053331746
 O        -6.6345385718        0.4423862062       -1.7403935156
 C        -6.6501372073        2.1431997417       -0.1134785357
 C        -7.8524472610        2.8056189495       -0.6138827238
 C        -8.8282339330        3.3601457580        0.3922744448
 O        -8.6456352505        3.0901199626        1.5715254912
 C        -9.8654430721        4.4488657866       -0.0275667890
 C       -11.2302854656        4.3293802217        0.7225749093
 O       -11.3145621515        4.6677186693        1.9084539882
 C       -12.3592814236        3.6181904072       -0.1231947929
 C       -13.4704900167        2.8543464838        0.6946136601
 C       -12.8355156335        1.8764006989        1.6945089342
 O       -11.6542753069        1.7377159690        1.6642740528
 C       -13.7020811745        1.0898465639        2.6878959794
 C       -13.0509602540        1.0784556102        4.0731734940
 O       -12.7728067832        2.0902147986        4.6899001823
 C       -12.2999742055       -0.2636537686        4.5191022556
 C       -11.6383337482       -0.0065767876        5.8257187577
 C       -10.5375387029        1.1385365863        5.7766855545
 O        -9.8519128231        1.2287288610        4.7887730361
 C       -10.1931742459        1.9572740653        7.0182243998
 C        -9.6114688961        3.3606842052        6.6535235595
 O        -9.4677190897        3.7885509897        5.5216623796
 C        -9.1172219945        4.2143503178        7.7632919655
 C       -11.1952788684        2.0587413990        8.1890383232
 C        -8.8275987299        1.1674662909        7.4022994943
 C       -15.0354277862        1.8749938842        2.9984225177
 C       -13.8775983025       -0.3621666406        2.0763797511
 C        -9.2752871761        5.7819341994        0.3957278395
 C       -10.0667756067        4.5001002317       -1.5607656692
 C        -4.1391258266        0.7365555638       -2.9365577471
 C        -3.5350378569        1.8560116686       -0.6199837217
 C        -6.5904075061        7.7763581931       -4.8806079989
 C        -6.2396274054        7.1743044240       -2.3685417418
 C       -11.8246950779        3.7073518786       -5.5182420464
 C       -13.5808825004        5.0571695199       -6.8343345396
 H       -15.4732769181        5.2362041440       -5.2544520329
 H       -14.9659188251        6.7689080308       -4.4480619165
 H       -15.6382967387        5.1793222948       -3.5767239006
 H       -10.4705795223        5.4627120469       -3.7724895785
 H       -11.3497845870        7.0968881508       -3.5476378165
 H        -9.8422233131        8.2078251532       -5.1155605155
 H        -9.1477434317        6.6480739510       -5.6361875183
 H        -4.8762041279        5.3559228530       -3.8575556304
 H        -5.6218076454        5.0842501328       -5.3592581591
 H        -4.7378142060        2.9173156038       -4.7246379248
 H        -6.3440072479        2.7848069207       -4.0187085626
 H        -5.8554257859        2.7631279169        0.3397196129
 H        -6.8842495995        1.4518875438        0.8206542582
 H        -8.3820535919        2.0230213491       -1.1297328628
 H        -7.6107807648        3.5463021611       -1.4056600972
 H       -11.7888687694        2.8274041192       -0.6978496194
 H       -12.7746774415        4.3032783261       -0.8679818652
 H       -14.1260434140        2.4564486022       -0.0099670065
 H       -14.0260139293        3.6455387753        1.3606746982
 H       -11.5726575251       -0.4998706594        3.6820542780
 H       -13.1333569411       -1.0328606967        4.6112927278
 H       -11.1104110506       -0.8207097777        6.2841662655
 H       -12.3206542722        0.2602682580        6.6291221804
 H        -9.6954079836        4.2469899077        8.7264876152
 H        -9.0657734806        5.2534131549        7.4666170843
 H        -8.0562994101        3.7768567561        7.9955383531
 H       -12.1810396204        2.5753433244        8.0453653025
 H       -10.6840998547        2.4784749703        9.1029107455
 H       -11.4526102915        1.0110494701        8.4560222853
 H        -8.1197272201        1.0310376507        6.5953097841
 H        -9.1208868890        0.2063213193        7.5980348107
 H        -8.2468167003        1.5555814648        8.2902686676
 H       -15.5801981781        1.9319714307        2.0534596314
 H       -14.7433582407        2.9179059228        3.3762990829
 H       -15.4962925121        1.2602783094        3.7235541469
 H       -12.8527247920       -0.6931652123        1.8456705813
 H       -14.4172624708       -0.3681956113        1.1566592998
 H       -14.2911633507       -1.0925467415        2.8016034735
 H        -8.2144127476        5.9537711577        0.0997913258
 H        -9.4182842169        5.9194838697        1.4984941014
 H        -9.8604740493        6.5924638447       -0.0622354068
 H       -10.8385538810        5.1464405800       -1.8444662230
 H       -10.2778070124        3.5609770340       -2.0761368336
 H        -9.2553071049        5.0275138517       -1.9936300651
 H        -3.6007665412        1.2654909462       -3.7012697956
 H        -4.9333613157        0.1870826304       -3.4174557184
 H        -3.5272595174       -0.0328079951       -2.5105104077
 H        -2.4920679271        2.2155034648       -0.8496985659
 H        -3.4453801614        0.8735695785        0.0685182056
 H        -3.9410820468        2.6746974704        0.0614613278
 H        -5.5055528067        7.5935481734       -5.0115951700
 H        -6.6429270440        8.7920484906       -4.4354054975
 H        -7.1364256733        7.6822964146       -5.7898965431
 H        -6.2327870382        8.1687504261       -1.9209907189
 H        -5.1867064337        6.8935008913       -2.4851856604
 H        -6.5499922943        6.5712731174       -1.5506236330
 H       -11.3258454626        3.5835816327       -4.6118253998
 H       -11.0508180570        3.8657448578       -6.2514517245
 H       -12.3414905752        2.8519789866       -5.8430601166
 H       -14.3700767560        4.3343541373       -6.8601718762
 H       -12.8361065096        4.9386142361       -7.7024818079
 H       -14.0306888705        6.0025700970       -7.1101625271
 Na      -10.2635408354        2.9127957822        3.2985352825
