117

 C       -14.0563017669        6.6057851511       -4.0059092919
 C       -13.2902783480        5.3494214352       -4.3493943621
 O       -13.1405561745        4.4982383548       -3.5044331105
 C       -12.7858883639        5.1767732385       -5.7784407811
 C       -11.4482769610        5.9540466238       -5.9360388155
 O       -11.2751438456        6.7932197361       -6.8126739683
 C       -10.3218296279        5.6506645813       -4.9955771588
 C        -9.0690394720        6.5083145458       -5.1653080127
 C        -8.2673113272        6.8422178504       -3.8501247814
 O        -8.9690149763        7.3034392311       -2.9495171029
 C        -6.8092196422        6.5786503945       -3.7016088092
 C        -6.5400277363        5.0184362159       -3.7431041632
 O        -7.4289571117        4.2563749305       -3.3389130554
 C        -5.3651250581        4.3855331694       -4.4721058889
 C        -5.0905226992        3.0157558060       -3.9347670247
 C        -5.1131994414        2.9290762710       -2.4214832996
 O        -5.2766500780        3.9103816264       -1.7255338693
 C        -4.9518773355        1.4779813714       -1.7347093123
 C        -6.4157309163        1.0512287195       -1.3685591119
 O        -6.9829257795        0.1985468007       -2.0069396763
 C        -7.1116673996        1.7778291492       -0.2249427358
 C        -8.3062857382        2.6273192732       -0.7801818853
 C        -9.2113782507        3.1340016782        0.3149738006
 O        -9.0446755396        2.7085949819        1.4512403961
 C       -10.1863066571        4.3756080390       -0.0242495724
 C       -11.4882660628        4.1225484112        0.7757162139
 O       -11.5088158501        4.2096143389        1.9969130869
 C       -12.8016858234        3.7034335456        0.0075740725
 C       -13.6900170829        2.9680870513        1.0605656333
 C       -13.0406632311        1.7932706803        1.7138505732
 O       -11.9191597317        1.4294903132        1.3920373167
 C       -13.8122794976        1.1061211132        2.8906166792
 C       -12.8074374879        1.3618921787        4.1498754450
 O       -12.4902816477        2.5236083583        4.3701073713
 C       -12.3222043101        0.1904506287        5.0959362513
 C       -11.7835715513        0.8357935048        6.3801264684
 C       -10.4119959017        1.5960241954        6.0949870785
 O        -9.7061813766        1.2772017807        5.1886933655
 C        -9.8006161511        2.6532291056        7.1950589804
 C        -9.3717616870        3.9986829176        6.4102618299
 O        -9.6671096236        4.2355310303        5.2541168421
 C        -8.5170205511        4.9616481806        7.1612085915
 C       -10.7635116569        3.0333761367        8.3818606197
 C        -8.5824747691        1.8605293477        7.7487986716
 C       -15.2103721264        1.6506772415        3.1914917769
 C       -13.7660980058       -0.4499809728        2.4517183766
 C        -9.3839184727        5.6593962052        0.4995281245
 C       -10.3609915326        4.4568810675       -1.5503511602
 C        -4.3598486965        0.3870309523       -2.6256852653
 C        -4.1298125902        1.6782024712       -0.3675970900
 C        -6.0512171504        7.2821349619       -4.8500591168
 C        -6.2392447629        7.0862662620       -2.3335449125
 C       -12.6056087176        3.6510922284       -6.0964985291
 C       -13.8194213568        5.7195447373       -6.7623165610
 H       -13.8033228056        6.9153645583       -3.0125156936
 H       -15.1476512356        6.3957447486       -4.1379104983
 H       -13.8528683568        7.3211176747       -4.8268397851
 H       -10.0201916142        4.5644569960       -5.1397519906
 H       -10.6719267453        5.6178490360       -3.9458473658
 H        -9.3958641600        7.4694899899       -5.6219954649
 H        -8.4980439603        6.0514942913       -5.9608537263
 H        -4.5033412176        5.0318772354       -4.4254645635
 H        -5.8027440899        4.3825866424       -5.4817981814
 H        -4.1554352731        2.5114155071       -4.2841359280
 H        -5.8178015609        2.2974374921       -4.3233973519
 H        -6.4800471066        2.4367592582        0.3065273732
 H        -7.4889935539        1.0018413437        0.4579611866
 H        -8.9316015183        2.0872273966       -1.5270628655
 H        -7.9025578781        3.5067517261       -1.3130443067
 H       -12.4687630400        3.0680866609       -0.8642479960
 H       -13.3088938655        4.5350563608       -0.4807682804
 H       -14.6615091127        2.6659228864        0.6737526682
 H       -14.0017455795        3.7647230391        1.8003616817
 H       -11.5412154456       -0.4288365614        4.6577345943
 H       -12.9960748237       -0.6210155161        5.3670524360
 H       -11.4709629364        0.0968035678        7.1552816073
 H       -12.4806879783        1.6449434998        6.7192383648
 H        -7.4807713518        5.0535458565        6.6813820341
 H        -8.4833335724        4.6818024956        8.2321894939
 H        -8.8645703651        6.0031654749        6.9948628146
 H       -11.6192794322        3.4364869030        7.8798428072
 H       -10.2420011862        3.6593630363        9.1381878675
 H       -11.1403308747        2.1197826904        8.8777219083
 H        -7.9736339530        1.6448011633        6.8724374247
 H        -8.7809160138        0.9288763481        8.1495687557
 H        -7.9928946294        2.4639413916        8.4678670134
 H       -15.9291583682        1.3814607988        2.4052646138
 H       -15.1252547610        2.7816276521        3.3020835399
 H       -15.5244836529        1.1601612748        4.1035041501
 H       -12.7499494837       -0.5977740533        2.0737749708
 H       -14.4564689912       -0.6805232730        1.6564689790
 H       -13.9664354354       -1.1263484834        3.2873812350
 H        -8.4514966821        5.7638539616       -0.1179404695
 H        -9.0377329045        5.6047739120        1.5802350057
 H        -9.9101847488        6.6008710933        0.4109881565
 H       -11.1865633572        5.0766991356       -1.8137755142
 H       -10.4824416939        3.4381731512       -1.9503285550
 H        -9.4552778675        4.8076020061       -2.0184056445
 H        -3.3075657089        0.6234294839       -2.7948206547
 H        -4.8630776135        0.2934266956       -3.5792186769
 H        -4.4979215022       -0.5867712262       -2.1926901705
 H        -3.0329732125        1.7551315916       -0.5119585905
 H        -4.3023027892        0.9812949671        0.4049635828
 H        -4.4762264594        2.6545053093        0.0291097660
 H        -5.0197830623        6.9105386761       -4.8353229311
 H        -6.0774518936        8.3929620200       -4.8491650218
 H        -6.5450246684        6.9568712390       -5.7468627477
 H        -6.3117364351        8.1648633577       -2.2500894172
 H        -5.2022136840        6.8071650223       -2.1237434114
 H        -6.7950559439        6.6672040865       -1.5089558241
 H       -11.9931428857        3.0955485444       -5.4256509022
 H       -11.9995676439        3.5943973452       -7.0030631242
 H       -13.5192635186        3.2163326017       -6.2472320595
 H       -14.7964600514        5.2013727717       -6.4872955369
 H       -13.6195931803        5.5684610666       -7.8558895867
 H       -13.9172078031        6.8024015815       -6.6916387112
 Na      -10.2821786270        3.0284392086        3.3956812702
