117

 C       -14.0405482811        6.6930924554       -3.9433049437
 C       -13.3313579720        5.3511607611       -4.3329186362
 O       -13.1545963818        4.4408101121       -3.5391504515
 C       -12.8171352668        5.2303070694       -5.8161842770
 C       -11.3306436169        5.9075851689       -6.0009052362
 O       -11.1003767118        6.7585703867       -6.8468183533
 C       -10.2127101582        5.5610150809       -4.9804358830
 C        -9.0278502124        6.5002594473       -5.1794286953
 C        -8.3610112605        6.8248622487       -3.8899455152
 O        -8.9526053720        7.2717679916       -2.9524806470
 C        -6.7796976293        6.5474569472       -3.7837750308
 C        -6.6088837146        4.9696851787       -3.8139900080
 O        -7.5197017922        4.3480546230       -3.3834019780
 C        -5.3768281802        4.3417314852       -4.4721803177
 C        -5.0105440832        2.9822221155       -3.9175633160
 C        -5.0451156590        2.8475382520       -2.3653455155
 O        -5.2485761669        3.8059028558       -1.6644935612
 C        -4.9683518603        1.4534090758       -1.6707420124
 C        -6.4408725075        1.0174683256       -1.4240286656
 O        -6.9486056750        0.1734057299       -2.1204750818
 C        -7.1455825332        1.8177379911       -0.2699246365
 C        -8.3285747333        2.5891324588       -0.8343115423
 C        -9.1495023119        3.1625582336        0.3679443663
 O        -9.1538833318        2.6906595855        1.4672458779
 C       -10.1388121881        4.3071410710       -0.0265739627
 C       -11.5116959618        4.1180104118        0.7399296152
 O       -11.5378622183        4.2464136222        1.9470621026
 C       -12.7761615232        3.7247412491        0.0563806726
 C       -13.7352194674        3.0205000996        1.0502662855
 C       -13.0536137915        1.8095459794        1.7497283379
 O       -11.9199161422        1.3802915285        1.4874591808
 C       -13.7783334052        1.0366456597        2.9983581614
 C       -12.9194836130        1.3920533445        4.2051826111
 O       -12.5979860755        2.5535793978        4.3974509954
 C       -12.3412710855        0.3605492854        5.1188771234
 C       -11.7119881413        0.9186720949        6.4447480614
 C       -10.4518495328        1.5802967901        6.1001797314
 O        -9.7948859380        1.2239641375        5.1421381526
 C        -9.7747614314        2.6658461698        7.0284773454
 C        -9.3507196089        3.9781744327        6.3872882487
 O        -9.6525635023        4.2372064552        5.2383866274
 C        -8.4823765964        5.0178715479        7.1265342023
 C       -10.7211424998        3.0845323180        8.2123509764
 C        -8.4997160963        2.0420416492        7.7110610058
 C       -15.2133268795        1.5669391384        3.1309019962
 C       -13.6673740924       -0.4638280528        2.6739717261
 C        -9.4652883109        5.5421067132        0.6076877937
 C       -10.3713577817        4.4694804452       -1.5094707170
 C        -4.3711312495        0.3476149900       -2.5177865552
 C        -4.1305477769        1.5757556302       -0.3553248083
 C        -5.9509988264        7.2805567282       -4.9220648762
 C        -6.2612985266        7.1649676664       -2.4276695983
 C       -12.7192260397        3.6803189814       -6.0525894958
 C       -13.8173918754        5.8307929217       -6.8201273388
 H       -14.2743212301        6.6479790488       -2.8353628633
 H       -14.9334274004        6.6483624350       -4.5381206777
 H       -13.5522829494        7.5844663338       -4.3082200989
 H        -9.8862005096        4.5277824758       -4.9456872500
 H       -10.5540851279        5.6721616301       -3.9271409743
 H        -9.4100905557        7.3948660325       -5.7218877409
 H        -8.2893354989        6.0927829588       -5.8680380036
 H        -4.6038181069        5.0575707706       -4.1028509194
 H        -5.4551591562        4.3537885232       -5.5961737219
 H        -4.0914511719        2.5682439957       -4.3420291860
 H        -5.7444625589        2.1817240976       -4.3198458233
 H        -6.4801382093        2.5821093256        0.3448374971
 H        -7.5286189186        1.0650010362        0.4931250373
 H        -9.0127638126        1.9423352913       -1.3343545834
 H        -7.9754401935        3.3662261181       -1.5698075145
 H       -12.5713712832        3.2111344064       -0.8965562993
 H       -13.2074361280        4.6494586702       -0.2385126627
 H       -14.6787802221        2.5552811750        0.4538598947
 H       -14.1948142090        3.7811749721        1.6662979735
 H       -11.6569493627       -0.1808512604        4.5140048564
 H       -12.8984947933       -0.4744377485        5.4757382609
 H       -11.3999874430        0.0768597215        7.0539172510
 H       -12.3733573013        1.6649079960        6.9095911822
 H        -7.3833702570        4.9252516645        7.0299398763
 H        -8.8008217137        4.9942736048        8.1861241750
 H        -8.6702140232        5.9690390534        6.7298574592
 H       -11.6520051980        3.3608326237        7.7743612614
 H       -10.1523783171        3.8293025720        8.7627993123
 H       -10.9860790664        2.2752163329        8.8518404435
 H        -7.9116107372        1.4846400091        7.0032096495
 H        -8.7341008475        1.2996515926        8.4971052824
 H        -7.9470926283        2.8190494479        8.1028904475
 H       -15.8026206763        1.4555879445        2.2301290331
 H       -15.1001277831        2.5951095558        3.3990559206
 H       -15.6779592554        0.9550267478        3.9481079476
 H       -12.6778942547       -0.7240283213        2.2530130569
 H       -14.4596377337       -0.6469443832        1.8630672222
 H       -13.9287272581       -1.0574794185        3.5100841223
 H        -8.4467625215        5.7427339073        0.2153115555
 H        -9.4150751052        5.5065280308        1.7160730616
 H       -10.0378751131        6.4362770756        0.3945485861
 H       -11.1564101458        5.2220612104       -1.6315385715
 H       -10.7025678158        3.5381525430       -1.8703565754
 H        -9.5058648152        4.7734982945       -2.0758308687
 H        -3.3701704691        0.5934812150       -2.9100410344
 H        -5.0270471129        0.1319803681       -3.3330109557
 H        -4.4255872274       -0.5512847290       -1.9911099946
 H        -3.0912954460        1.7082573638       -0.5474458346
 H        -4.2490487591        0.6790743852        0.1805242255
 H        -4.4130304150        2.3121974857        0.2256347083
 H        -4.9120112235        6.9916440556       -5.0270552913
 H        -6.0676473545        8.3922315528       -4.9434313192
 H        -6.5406778617        6.9509181981       -5.7780929999
 H        -6.1328475616        8.1954432648       -2.5486715523
 H        -5.3110266928        6.7606996854       -2.1909632428
 H        -6.8705710817        6.9971783750       -1.5338915297
 H       -11.9843333478        3.1420343372       -5.4285375762
 H       -12.3161804509        3.4557684083       -7.0421888960
 H       -13.7507646347        3.3187780893       -6.0405813469
 H       -14.8336914786        5.5282775664       -6.3550916473
 H       -13.7508952480        5.5081203861       -7.8071964376
 H       -13.7590421813        6.9219971588       -6.9021757289
 Na      -10.2948044686        3.0835152153        3.4888484921
