117

 C       -14.3432538599        6.3332117070       -4.1535537276
 C       -13.3038601283        5.1773963067       -4.3143610879
 O       -13.0105595538        4.5476883405       -3.3048645700
 C       -12.6696126830        4.9958042669       -5.7204614768
 C       -11.7106704736        6.1916561527       -5.7981757516
 O       -11.8291693679        7.0353877728       -6.6508762844
 C       -10.6285083533        6.1998136398       -4.7067836050
 C        -9.2569080926        6.8234295608       -4.9708214441
 C        -8.5422361311        6.9860114918       -3.6596389262
 O        -9.1251356499        7.3167372391       -2.6570935812
 C        -6.9756117754        6.6235307079       -3.6371024553
 C        -6.8976356162        5.0810628848       -3.9035360108
 O        -7.8580101205        4.3052405137       -3.8874168717
 C        -5.4643724303        4.5673187955       -4.4696538303
 C        -5.2611361019        3.0486875422       -3.9190818089
 C        -4.9595027946        2.9693153821       -2.4256182637
 O        -4.9156912355        3.9758845855       -1.7570980558
 C        -4.7044751440        1.5421941450       -1.7252325518
 C        -6.2053522933        1.0970173720       -1.3395072487
 O        -6.7286777316        0.1907667183       -1.9312840865
 C        -6.9598660608        1.9030362551       -0.2064258363
 C        -8.0936868800        2.8382798730       -0.7642463503
 C        -8.9976154830        3.3103901546        0.3240860840
 O        -8.8174260097        3.0231886697        1.4885362755
 C       -10.0292234557        4.4420198037       -0.1361644322
 C       -11.3640867895        4.2553276046        0.6601106212
 O       -11.4577229818        4.4826658893        1.8506986055
 C       -12.6761205397        3.7706054001       -0.0180496797
 C       -13.5726185296        3.0393018306        0.9213584707
 C       -12.9080490877        1.8376671632        1.5996216682
 O       -11.7931649573        1.4685764052        1.3205101164
 C       -13.6835525363        1.1220966341        2.8006818335
 C       -12.7849618598        1.3045129578        4.0923193350
 O       -12.3898844402        2.4017516222        4.4776551251
 C       -12.3184486728        0.1365479744        4.8414586203
 C       -11.6975354349        0.4905303100        6.1945363513
 C       -10.3902466587        1.3319642021        6.0314076198
 O        -9.7354961067        1.1153320343        5.0074545466
 C        -9.9963778888        2.2784068836        7.1468603404
 C        -9.5078389336        3.6357654231        6.6308669084
 O        -9.4670186188        3.9139364605        5.4477993400
 C        -8.8640638129        4.6252106622        7.6719372499
 C       -11.0866256918        2.4708806341        8.2484623239
 C        -8.7856720269        1.4835894910        7.7842378200
 C       -15.1584812609        1.6878632046        3.0872352569
 C       -13.8434363731       -0.3223772102        2.4419011912
 C        -9.4490064872        5.8238412197        0.2555237296
 C       -10.2888546637        4.4275584847       -1.6540773547
 C        -4.0569062498        0.5461992194       -2.7844894648
 C        -3.7551683386        1.6878705452       -0.5203187022
 C        -6.2576796338        7.4926912459       -4.6184297912
 C        -6.5193537409        6.9271330729       -2.1894327185
 C       -11.9583809257        3.6447010373       -5.8897046992
 C       -13.7261997297        5.2011232852       -6.8180249218
 H       -13.6682159090        7.2011890170       -4.1626799381
 H       -14.7918933952        6.2380258074       -3.1558133488
 H       -15.0655525610        6.3497309724       -4.9751454945
 H       -10.5305245890        5.1473033537       -4.3399221745
 H       -11.0329094331        6.8270888639       -3.8922318406
 H        -9.3903097471        7.7347809544       -5.5340406202
 H        -8.7343034807        6.0955644254       -5.6265274836
 H        -4.6826288271        5.2757772584       -4.2294316776
 H        -5.6462466856        4.5303503422       -5.5337310843
 H        -4.3536075915        2.6937972125       -4.4836873867
 H        -6.0656329456        2.3786768571       -4.2026932432
 H        -6.2438042129        2.4997551738        0.2655742628
 H        -7.4402471315        1.1852716892        0.3542202245
 H        -8.6626073910        2.4122230586       -1.6435255388
 H        -7.6709839306        3.7300030760       -1.2086732168
 H       -12.5050582785        3.2275469696       -0.9402194558
 H       -13.1832807437        4.6985439710       -0.4437285946
 H       -14.4976018735        2.8498767607        0.4635390067
 H       -13.8971774817        3.7416554472        1.7097811485
 H       -11.6515926256       -0.4422539077        4.1746905061
 H       -13.0744381134       -0.6013155143        5.1125875053
 H       -11.3996501025       -0.4746800593        6.7582295802
 H       -12.3965792482        1.0498096325        6.8507289288
 H        -9.3228399822        5.5962057840        7.5211317327
 H        -7.7497423544        4.6320522994        7.5159202554
 H        -9.1334982592        4.4681959754        8.7558938321
 H       -11.8920564621        3.1778234251        7.9464932100
 H       -10.6830445003        3.0134739490        9.0590822158
 H       -11.2734384940        1.4912471708        8.6470622766
 H        -8.0772340382        1.2020059238        7.0625662186
 H        -9.1178921497        0.6311744920        8.3771882160
 H        -8.2558527586        2.0892237792        8.4832078545
 H       -15.7082397319        1.4113485147        2.1618531664
 H       -15.1060530090        2.7401578080        3.2943286996
 H       -15.5670119198        1.1182773295        3.9337193255
 H       -12.8831555989       -0.7478747961        2.1517083567
 H       -14.5894176586       -0.4477152938        1.6724591342
 H       -14.2025291715       -0.8526355633        3.3701906324
 H        -8.3919082711        5.9711581991        0.0285344989
 H        -9.4813515942        5.9777056828        1.3277534256
 H       -10.0278923433        6.6428617228       -0.2970826450
 H       -11.1881869175        4.9760426403       -1.8461354038
 H       -10.4481368090        3.4381516353       -2.0453046999
 H        -9.4764806126        4.8507058331       -2.2186896939
 H        -3.3192416238        0.9043898492       -3.4301882423
 H        -4.8524726867        0.0967096673       -3.3542258603
 H        -3.4903846380       -0.2031762418       -2.2247740502
 H        -2.7418456627        1.9766069578       -0.8486240071
 H        -3.6603790643        0.6730991439       -0.0036899873
 H        -4.0337530092        2.3739448618        0.2458670744
 H        -5.2084065619        7.2000593696       -4.7204828142
 H        -6.3422153955        8.4665071798       -4.1861246016
 H        -6.7203241546        7.4110687183       -5.6394125888
 H        -6.5479435846        8.0064713821       -2.0356365114
 H        -5.5235950554        6.6667141607       -1.9183815571
 H        -7.1681948043        6.5188519383       -1.4507800237
 H       -11.2341788093        3.3978171518       -5.1701262758
 H       -11.6301239543        3.4941029416       -6.8472663536
 H       -12.6759285274        2.8506383867       -5.6398243517
 H       -14.5657663596        4.5679861801       -6.7056434867
 H       -13.3886945786        4.7498071470       -7.7663314660
 H       -13.9724984670        6.2994706691       -6.8784208330
 Na      -10.3027123562        3.2182854188        3.3086859067
