117

 C       -14.1176647404        6.4996643822       -3.9918403938
 C       -13.3136375586        5.2948668500       -4.3235890339
 O       -12.8851595136        4.5254933328       -3.4851319524
 C       -12.7489067265        5.1196844859       -5.8113061697
 C       -11.6172313734        6.1511478182       -5.8536364044
 O       -11.5665431384        7.0878755403       -6.6543349696
 C       -10.5694523998        5.9219840169       -4.7372783828
 C        -9.1950483940        6.5704265567       -5.1408348087
 C        -8.4585606138        6.9254951944       -3.7843146700
 O        -9.0881970499        7.2507918221       -2.8009787041
 C        -6.8533259853        6.5745476829       -3.6048493808
 C        -6.7267244374        5.0067292377       -3.8388328693
 O        -7.6563509180        4.3102767341       -3.5332536285
 C        -5.4417950596        4.4841281107       -4.3939186284
 C        -5.2000618571        3.1179979322       -3.9599101707
 C        -5.0875421163        2.9863906050       -2.4700377278
 O        -5.0433207333        3.9901875833       -1.7937269545
 C        -4.8318532378        1.5424265861       -1.7870605458
 C        -6.2436237725        1.0428287415       -1.3759348642
 O        -6.7950965882        0.1601319071       -1.9745373111
 C        -7.0146868392        1.7849021797       -0.1399726004
 C        -8.1358133056        2.6818409630       -0.7191346395
 C        -9.0816964685        3.2913759817        0.3309910596
 O        -8.9509800342        2.9244852280        1.4778332511
 C       -10.0792114683        4.4356517454       -0.0953923599
 C       -11.4881843839        4.2811664059        0.6936588634
 O       -11.4829372465        4.5471135936        1.8842481453
 C       -12.7510433374        3.8174313054        0.0061672456
 C       -13.6743283422        3.0039678006        0.9782649164
 C       -13.0116751542        1.7859440650        1.5849850173
 O       -11.8607066223        1.4718240157        1.2650909827
 C       -13.6735863014        1.0332606149        2.8124713222
 C       -12.7481388423        1.2580031503        3.9972047993
 O       -12.3365855910        2.3794869603        4.2087643503
 C       -12.3308545235        0.2081972954        4.9904769609
 C       -11.7299981613        0.6695590227        6.2963083458
 C       -10.3943898868        1.3882662249        6.0969281375
 O        -9.8944084429        1.3969654768        5.0074692363
 C        -9.8592442506        2.3322400166        7.2420928016
 C        -9.3842055902        3.7946328102        6.6115548653
 O        -9.6013745860        4.0919681592        5.4614180751
 C        -8.6823762830        4.7545635320        7.5403196707
 C       -10.9144906346        2.6836279721        8.2504205651
 C        -8.6636666138        1.7611753176        7.8731293128
 C       -15.0091784501        1.7771194775        3.2797802046
 C       -13.8728798826       -0.4105280720        2.4551244806
 C        -9.4934135057        5.8036439157        0.3933306844
 C       -10.3282143343        4.3778103052       -1.6719004556
 C        -4.2728282232        0.4590942570       -2.7280010086
 C        -3.9705137544        1.7979875598       -0.4848671268
 C        -6.0994484089        7.4645873159       -4.7450507232
 C        -6.4264040313        6.8622365923       -2.2081566751
 C       -12.2630328061        3.6241564936       -5.8845623312
 C       -13.8420763721        5.2420310322       -6.9573089773
 H       -13.4947908266        7.1925235965       -3.4072265654
 H       -14.8443671314        6.0783368697       -3.3321055074
 H       -14.6117362028        6.8486394801       -4.8738634750
 H       -10.5302879736        4.8786833655       -4.4029387950
 H       -10.9139744425        6.5417190481       -3.8907158228
 H        -9.5046917241        7.5445726147       -5.5871162813
 H        -8.7133772443        6.0040614500       -5.9273545898
 H        -4.6742381487        5.2218218739       -4.0689822665
 H        -5.5810612083        4.5192292854       -5.5030602559
 H        -4.3975633592        2.7006412097       -4.5558115241
 H        -6.1201334917        2.4964587022       -4.2424576120
 H        -6.2550692781        2.5197465344        0.2942065751
 H        -7.5370179363        0.9634840956        0.4835912878
 H        -8.6327177526        2.2598162683       -1.5575722650
 H        -7.6106675824        3.5703005946       -1.1768679480
 H       -12.5098667067        3.1790164536       -0.8543587598
 H       -13.1100713075        4.6622226078       -0.4864537281
 H       -14.6274802421        2.6940166232        0.3761885252
 H       -14.1501536075        3.5853239388        1.7605435071
 H       -11.5762892998       -0.4403298823        4.5772278131
 H       -13.1073160582       -0.5306671244        5.1390861637
 H       -11.4231937567       -0.0642264644        7.0091449736
 H       -12.3216249352        1.4280286958        6.7776183637
 H        -8.3643536772        5.6876935175        7.1145546876
 H        -7.9397111804        4.1538393079        7.9831551674
 H        -9.3441234119        5.0963771961        8.2343264538
 H       -11.7149619244        3.1094449149        7.6781930099
 H       -10.5621314847        3.3933826940        9.0706625151
 H       -11.1316558213        1.7612004202        8.7768709599
 H        -7.7850769892        1.6280839780        7.2044284846
 H        -8.9434203437        0.7320428288        8.1553183847
 H        -8.3748404532        2.1869730146        8.8272040197
 H       -15.5907782635        1.9639732084        2.4206110022
 H       -14.6942703083        2.6816774390        3.7932920853
 H       -15.5533335290        1.1037438323        3.9358499327
 H       -12.8463733430       -0.7708835171        2.2902340027
 H       -14.3426108071       -0.3662814724        1.4335016362
 H       -14.4207141886       -1.0545582331        3.0836634197
 H        -8.4757703386        6.0344074752        0.1310310400
 H        -9.4798221760        5.8380181379        1.4817705666
 H       -10.0949549178        6.5566890357        0.0369835185
 H       -11.0209063642        5.2068074943       -1.8792384643
 H       -10.7526385935        3.4516785494       -2.0363979956
 H        -9.4042906067        4.4446347141       -2.2484694908
 H        -3.4659101824        0.8913815815       -3.3937929203
 H        -5.0600181219        0.0027277939       -3.3388748344
 H        -3.7375466030       -0.2861609005       -2.1722716433
 H        -2.8970065017        1.9553023587       -0.6628386293
 H        -4.0421796279        0.9955281360        0.1648715518
 H        -4.3357155203        2.6071093776        0.0482086378
 H        -5.0457192920        7.5165536549       -4.5058027386
 H        -6.5350778757        8.4943134127       -4.7453557670
 H        -6.1947200560        6.9766433773       -5.6914639696
 H        -6.6423975995        7.8648795022       -1.8917585246
 H        -5.3325526789        6.7983786413       -2.1787820643
 H        -6.7540239847        6.1443217914       -1.4326361825
 H       -11.7874290619        3.2164687572       -4.9278791213
 H       -11.4921916143        3.4527320660       -6.7371665566
 H       -13.0866247084        2.9049405585       -5.9260023653
 H       -14.5347286910        4.3678763287       -6.8404526595
 H       -13.5035689450        5.0061493793       -7.9121588426
 H       -14.2948463068        6.1815740358       -6.9598630648
 Na      -10.3244826142        2.8510874480        3.3143191625
