117

 C       -14.1124809384        6.6273987051       -3.9785816008
 C       -13.3055781595        5.2907526615       -4.3364162682
 O       -13.0575256385        4.5289887497       -3.4107494891
 C       -12.8211314930        5.0927128556       -5.8167652552
 C       -11.5005336197        5.9937295151       -5.9602137274
 O       -11.5270582499        6.8464681207       -6.7905632500
 C       -10.3142141543        5.6733121210       -4.9532775893
 C        -9.0423377646        6.4949144950       -5.1796219926
 C        -8.3736477782        6.8724294344       -3.7473108892
 O        -8.9952718842        7.3466226044       -2.8215035747
 C        -6.7805990550        6.5137716005       -3.7076763671
 C        -6.6303855162        5.0185093667       -3.8091626760
 O        -7.4619079151        4.2519137985       -3.2631514924
 C        -5.2982199447        4.4151925805       -4.4537109807
 C        -5.1558513226        2.9653489781       -3.9758004226
 C        -5.0914912921        2.9236474991       -2.4351976780
 O        -5.2429448089        3.9523561737       -1.7728400160
 C        -4.9371233823        1.5896949461       -1.7752537825
 C        -6.4429848866        1.1054520955       -1.2866701458
 O        -7.0081912021        0.2180292741       -1.9197540030
 C        -7.1646601548        1.7514781803       -0.1563960619
 C        -8.2415992456        2.6612217974       -0.7527417329
 C        -9.1453852919        3.1768226005        0.3180659981
 O        -9.0103555126        2.7515143387        1.4747259568
 C       -10.1228632157        4.3347606097       -0.0483141480
 C       -11.4057906505        4.1359017934        0.7587586425
 O       -11.5177772901        4.3181332639        1.9669172028
 C       -12.7122683660        3.6747609647        0.0521782082
 C       -13.7201390496        3.0418202208        0.9971978476
 C       -13.0001541331        1.8374212395        1.6595297225
 O       -11.9192486810        1.4947707136        1.2861932385
 C       -13.6590775226        1.0818960363        2.8675820552
 C       -12.7753076966        1.2773972552        4.0909149632
 O       -12.4319768465        2.4278629098        4.3355266991
 C       -12.3570429296        0.2474552748        5.0221956853
 C       -11.7862263209        0.8205879179        6.3217305574
 C       -10.3586923214        1.5983301098        6.1901552983
 O        -9.7026552918        1.4148084253        5.1715584739
 C        -9.8772698808        2.5570722659        7.1868280256
 C        -9.3675023849        3.9101828373        6.4736747184
 O        -9.6855726132        4.1668242763        5.3381154210
 C        -8.5253944293        4.9052864398        7.2916309409
 C       -10.7970631828        2.9242402715        8.3789202155
 C        -8.6446441203        1.8143376603        7.7617209173
 C       -15.0501951445        1.5911551259        3.2682932133
 C       -13.9336314559       -0.4113742836        2.3750751500
 C        -9.4409801254        5.6328290297        0.3881767065
 C       -10.4252680363        4.4888194345       -1.5561642573
 C        -4.2610493753        0.5208424878       -2.6750881830
 C        -4.1112673356        1.7394969065       -0.5112353820
 C        -6.0500780580        7.3227201309       -4.8333515213
 C        -6.2598664773        6.9953255748       -2.2901741268
 C       -12.4024112083        3.6425278349       -6.1296299745
 C       -13.8703504159        5.6326848733       -6.8456787338
 H       -13.5325130266        7.0640245497       -3.2031355943
 H       -15.1750707075        6.4919691363       -3.6766477377
 H       -14.1250165824        7.2357034614       -4.8875926432
 H       -10.1172992563        4.5736191628       -4.8057335012
 H       -10.7317921931        5.9734244465       -3.9637166310
 H        -9.3209101939        7.4046017324       -5.7042406119
 H        -8.3816623769        5.9640164085       -5.8827600423
 H        -4.4446254980        4.9886079741       -4.1592563511
 H        -5.5027636507        4.5335706259       -5.4955825993
 H        -4.2116233263        2.4950060248       -4.2904619232
 H        -5.8651887688        2.3130798942       -4.3796052341
 H        -6.5036074160        2.3463241753        0.3848467252
 H        -7.6770726263        1.0080940624        0.3758489224
 H        -8.9282055110        2.0819145245       -1.4596821467
 H        -7.8431649066        3.4721527395       -1.3471581624
 H       -12.4220092051        2.9015363877       -0.6627355437
 H       -13.1695158036        4.4506400721       -0.6572270393
 H       -14.5748148801        2.8447938078        0.4917527499
 H       -14.0847930467        3.7698113689        1.7523046840
 H       -11.6267644016       -0.5230230856        4.6558721812
 H       -13.1859581468       -0.4718100392        5.2560454050
 H       -11.5213571392       -0.0004757515        7.0254698258
 H       -12.4520407564        1.6042481973        6.7178556192
 H        -7.7586204915        5.2239554433        6.5756266634
 H        -8.1165976853        4.5584425754        8.2561520350
 H        -9.0493074161        5.9349993671        7.3266795715
 H       -11.6707749499        3.5529446679        7.9996507968
 H       -10.1413406757        3.3781334801        9.1206300852
 H       -11.1875729145        1.9783913099        8.8515430815
 H        -7.8595163372        1.7967137771        7.0080628036
 H        -8.8079338227        0.7613919183        7.9544032854
 H        -8.2770602006        2.2764994352        8.7198506305
 H       -15.7202648624        1.3332974940        2.4125880455
 H       -14.9559155174        2.6953228589        3.3335583991
 H       -15.4150626209        1.1155288658        4.1688351751
 H       -13.0304685470       -0.9004340067        2.0864173844
 H       -14.5960096341       -0.4046233351        1.5789580579
 H       -14.4289800846       -0.9524154045        3.2148142908
 H        -8.5459833204        5.8049049934       -0.2082611446
 H        -9.0938852560        5.5963557224        1.4130906388
 H       -10.0776685762        6.5576184517        0.2919983426
 H       -11.2316598410        5.1979458415       -1.6766478405
 H       -10.6289826987        3.5173813351       -2.0598167694
 H        -9.5077728410        4.8164267711       -2.0589237942
 H        -3.2266127767        0.7731359897       -2.7962791639
 H        -4.7343347002        0.4776066342       -3.6672486062
 H        -4.3585621213       -0.5350628153       -2.2833124830
 H        -3.0487771970        1.5986950408       -0.7723000190
 H        -4.3234713421        1.0512957748        0.3701933353
 H        -4.2260910997        2.8526803726       -0.0747499848
 H        -4.9832383687        7.2805208366       -4.5990269142
 H        -6.3690778847        8.3244092481       -4.7008576965
 H        -6.2682281249        7.0066832848       -5.8662980706
 H        -6.6439767013        8.0299262668       -2.0527338184
 H        -5.1969267916        6.9462773696       -1.9731468140
 H        -6.7819488678        6.3483371357       -1.5926155987
 H       -11.8858766698        3.2466618284       -5.2904153106
 H       -11.6850181043        3.5743778924       -6.8921171194
 H       -13.2437997108        2.9710990691       -6.2679837867
 H       -14.7629832133        5.0764533713       -6.9345548071
 H       -13.3726075623        5.6502290067       -7.8921405373
 H       -13.9908735516        6.7242358475       -6.6900313893
 Na      -10.2719392788        2.9092067468        3.3351292228
