117

 C       -13.7620930395        6.8425909440       -3.9182394191
 C       -13.2200256581        5.5297727061       -4.3029326090
 O       -13.0699848495        4.6358235509       -3.5124610747
 C       -12.8595114044        5.3227029988       -5.8738792499
 C       -11.3189719960        5.8763419255       -6.0445312928
 O       -11.0476682565        6.4648121260       -7.0843997966
 C       -10.2863229697        5.5705610462       -4.9757871722
 C        -9.0059385144        6.2774439529       -5.3079611173
 C        -8.2957532306        6.7336712041       -3.9640931834
 O        -8.9565289653        7.2019073148       -3.0842599198
 C        -6.7157764746        6.4995389157       -3.8707413266
 C        -6.5256755639        4.9252421219       -3.8777639551
 O        -7.5295148295        4.2585222925       -3.6729524955
 C        -5.1624442604        4.3588203983       -4.0948587781
 C        -5.1969196394        2.8853584900       -3.6704270834
 C        -5.0356836491        2.7111360099       -2.1922170474
 O        -4.9117331556        3.6228774383       -1.4242302026
 C        -4.9292145377        1.2388640516       -1.6202706487
 C        -6.4661544923        0.9565950662       -1.4673705058
 O        -7.0083944736        0.2676574005       -2.2763929851
 C        -7.2077072492        1.6163853193       -0.2353351617
 C        -8.5041468546        2.3778445153       -0.7398523045
 C        -9.2765279043        3.0529624641        0.3951939278
 O        -9.1872748164        2.6449449097        1.5233073059
 C       -10.1977651995        4.3553722688        0.1392678411
 C       -11.6043877298        4.0734073367        0.9059073232
 O       -11.8428574598        4.4349666882        2.0329236716
 C       -12.8107449404        3.4919276798        0.1156123135
 C       -13.8015448906        2.8131235797        1.0592642317
 C       -13.0513971711        1.7510332838        1.9380920777
 O       -11.8915723436        1.4211420788        1.6497253465
 C       -13.7491648648        0.9596636311        3.1157401313
 C       -13.0467896754        1.5209776374        4.3828715748
 O       -12.9264103009        2.7319877371        4.5349493868
 C       -12.5624477924        0.5310289842        5.4565907911
 C       -11.6478233425        1.1351687008        6.5189676810
 C       -10.3849733723        1.8481405563        5.9236831174
 O        -9.7398608184        1.5641550308        4.9466287086
 C        -9.6847577214        2.9260852602        7.0005018342
 C        -9.1871708505        4.1537065717        6.2281747851
 O        -9.4892135269        4.3084302202        5.0488002423
 C        -8.4284753852        5.2362915053        6.9933172187
 C       -10.5374678963        3.3823571372        8.1804523592
 C        -8.4859081709        2.0589287644        7.5871048283
 C       -15.1874818197        1.4381560018        3.1889259917
 C       -13.5452673392       -0.5492010860        2.8458427715
 C        -9.4312786342        5.5202626514        0.7383404523
 C       -10.5195461332        4.5655321283       -1.3880839462
 C        -4.3010335857        0.3330899597       -2.6455248543
 C        -4.1108879226        1.2453378602       -0.3152444263
 C        -6.0217495550        7.0891867867       -5.1940608702
 C        -6.1128851507        7.0717813521       -2.6074654010
 C       -12.8058464865        3.8290946312       -6.2135536861
 C       -13.8188924389        6.0685845157       -6.8592499595
 H       -14.8597901340        6.7341873096       -3.9047693133
 H       -13.3619504832        7.5745964754       -4.5960434131
 H       -13.4427560775        7.0087529664       -2.8879679614
 H       -10.0990753714        4.5520014269       -4.5526424952
 H       -10.5467050291        6.0081837110       -3.9933832842
 H        -9.2847941324        7.1605439225       -5.9132046889
 H        -8.3192260058        5.7540840096       -5.9341632035
 H        -4.5228669750        4.9776486353       -3.4995774289
 H        -4.8750376604        4.4173305086       -5.1368658585
 H        -4.5203825712        2.2850751479       -4.2608953771
 H        -6.1026769980        2.3880717782       -3.9524074963
 H        -6.5570937218        2.2880048228        0.2857399286
 H        -7.4009491961        0.9594116602        0.5240657360
 H        -9.0583529550        1.5745219820       -1.2398748092
 H        -8.1901253194        3.1825910142       -1.4456045026
 H       -12.5786183225        2.7766350948       -0.7549434732
 H       -13.2657373322        4.3948899121       -0.3074865237
 H       -14.6178097911        2.4198305349        0.3957400851
 H       -14.2205815883        3.5524819071        1.6933574315
 H       -12.0351052488       -0.2788064703        4.8990444863
 H       -13.3061415596       -0.1080275576        5.9828235192
 H       -11.2380600241        0.3787997092        7.2006385231
 H       -12.1167285521        2.0488944595        6.9475047247
 H        -7.5267206458        4.8150390413        7.5728425135
 H        -9.1155427233        5.7740781533        7.7093017866
 H        -8.1167143870        6.0302692265        6.3304614176
 H       -11.4537766990        3.8323815568        7.8779926800
 H        -9.7935639352        3.9602135710        8.8046083634
 H       -10.8974988195        2.4543036125        8.6057659557
 H        -7.6049997492        1.8036404984        6.9238985494
 H        -8.9130917146        1.1156217981        7.9333137470
 H        -8.1255223381        2.6218015706        8.4441035525
 H       -15.6712010750        1.0931533106        2.2732829424
 H       -15.3357990566        2.5488629024        3.2588642917
 H       -15.6832807246        0.9972757745        4.0752429659
 H       -12.4860398704       -0.7254469868        2.7458866812
 H       -14.0012028577       -0.8001719611        1.8863137409
 H       -13.9427206656       -1.1336509975        3.6245953441
 H        -8.4697066215        5.6041848522        0.2249244631
 H        -9.2816893313        5.3650671052        1.8218717745
 H        -9.8755066773        6.4579602732        0.6741895171
 H       -11.2303335233        5.4010683127       -1.4882859722
 H       -10.9742031901        3.6557327510       -1.8222898562
 H        -9.6314569723        4.9510377716       -1.9059346053
 H        -3.3560558242        0.8313457150       -2.9933554949
 H        -4.9282206104        0.0889876513       -3.5114510132
 H        -4.1066704997       -0.6126823140       -2.1628061946
 H        -2.9748348711        1.4796615007       -0.5309887521
 H        -4.2094677534        0.2509357150        0.2891718355
 H        -4.3898398606        2.0836573467        0.2880258871
 H        -4.9578545731        7.1014875219       -5.0089330630
 H        -6.3131854136        8.1236348782       -5.4703821717
 H        -6.2435997545        6.4809491078       -6.0306927674
 H        -6.2175673225        8.1661513595       -2.6481249424
 H        -5.0164810820        6.8363422673       -2.5963871990
 H        -6.5347357151        6.7282630240       -1.6201940222
 H       -12.0260848426        3.3631028110       -5.6306140310
 H       -12.4905119973        3.6741044135       -7.2520630566
 H       -13.7399202534        3.3967946776       -6.1475599264
 H       -14.8990317569        5.6802824658       -6.8037653591
 H       -13.3662316470        6.0863570511       -7.8167529110
 H       -14.0495469510        7.0933775592       -6.5619827902
 Na      -10.5817208640        2.9048038718        3.2627257050
