117

 C       -13.5607536410        7.0056232044       -3.8793534083
 C       -13.1622946880        5.5897615649       -4.4159210759
 O       -12.9407215022        4.7307010694       -3.5478005390
 C       -12.8563790676        5.3925178853       -5.9017805069
 C       -11.3864446315        5.9184667640       -6.1929672777
 O       -11.1285410502        6.3850222567       -7.2881925348
 C       -10.4765936557        5.7763047305       -4.9798546604
 C        -9.0230199028        6.1640575176       -5.3090328782
 C        -8.2769977514        6.6217880906       -4.0229914672
 O        -8.7865107358        7.2364881449       -3.0797106716
 C        -6.6886659271        6.4225076528       -3.9893231872
 C        -6.5499858096        4.8953715192       -3.9405034851
 O        -7.5194802895        4.1417381610       -3.7298308049
 C        -5.0855474993        4.3703829969       -4.0189365591
 C        -4.9583178205        2.9144844741       -3.5897354855
 C        -4.8067184293        2.6460151066       -2.0772948279
 O        -4.7400038900        3.5904341517       -1.3076756420
 C        -4.9901291505        1.2093691069       -1.5300904408
 C        -6.5893012394        0.9866320973       -1.4257563511
 O        -7.1756371722        0.2884057235       -2.2434118776
 C        -7.3233700902        1.6753740567       -0.3012275470
 C        -8.5334598060        2.4142492308       -0.7760941477
 C        -9.3093110420        2.9446616239        0.3776766413
 O        -9.0953646233        2.5336107676        1.5293028648
 C       -10.2297462436        4.2077368609        0.1144653537
 C       -11.5879001215        4.0175290376        0.8412591076
 O       -11.7586013999        4.5688060048        1.9353181532
 C       -12.7055957323        3.3437041952        0.0682295765
 C       -13.7652451936        2.7108358512        1.0852587322
 C       -13.0278212037        1.6806856597        1.8985698597
 O       -11.8561716110        1.4321640737        1.8163210248
 C       -13.7776487338        0.9722237487        3.1179759225
 C       -13.0474582143        1.5093847797        4.4890447306
 O       -12.9025607013        2.7205967879        4.6276447299
 C       -12.4096613377        0.5437850129        5.4582374708
 C       -11.9037466235        1.3445608877        6.6767568290
 C       -10.4577005150        2.0632003523        6.1556415742
 O       -10.0764074474        1.7170222343        5.0464319143
 C        -9.6003234304        2.9830133926        6.9878022794
 C        -9.0846611380        4.2227945952        6.0465741100
 O        -9.3574780554        4.2640223794        4.8743129060
 C        -8.3742356246        5.3109597114        6.7889350304
 C       -10.3970951402        3.5029461707        8.1798747145
 C        -8.3519044558        2.2383839455        7.3927281282
 C       -15.2906397882        1.2149386916        3.2735399971
 C       -13.6408860447       -0.5527192001        2.9371089473
 C        -9.5150280577        5.3938824201        0.8396595416
 C       -10.3794282355        4.5401496041       -1.4229714137
 C        -4.4800897439        0.1344503711       -2.5431736522
 C        -4.2773796506        0.9790409702       -0.1468765846
 C        -6.0722441106        6.9776717443       -5.2525476875
 C        -6.1416660509        7.1635105608       -2.7101404050
 C       -12.8467966077        3.8376914037       -6.1836061104
 C       -13.9319383490        6.1435494846       -6.8406240386
 H       -14.2603358303        7.4431224739       -4.5623117368
 H       -12.6092763213        7.6025860665       -3.8549152839
 H       -14.0632251362        6.8463304379       -2.9062143140
 H       -10.4200361096        4.8405341814       -4.4763456348
 H       -10.7786382921        6.3195010785       -4.0840244059
 H        -9.0212660672        7.0548445156       -5.9477469619
 H        -8.4181076107        5.4079321623       -5.8830338778
 H        -4.2883591299        4.9921722990       -3.4943367245
 H        -4.8565097324        4.4113724573       -5.1051213878
 H        -4.1240239542        2.4857438570       -4.2286988443
 H        -5.7976232101        2.2396857233       -3.9411529443
 H        -6.7066449578        2.2928649484        0.4130691759
 H        -7.5529511463        0.8713028895        0.5310588045
 H        -9.1212539231        1.6554150049       -1.2984623793
 H        -8.2102460595        3.2211020440       -1.3953483029
 H       -12.3029779470        2.5406604162       -0.4613245257
 H       -13.0974033775        4.0865696009       -0.6500197140
 H       -14.5849387430        2.2556084305        0.5519717570
 H       -14.2006880651        3.4824996182        1.8380042712
 H       -11.5777610163       -0.0361800233        5.1062907705
 H       -13.1481908054       -0.2289433142        5.6583454293
 H       -11.5093206331        0.6209098406        7.3800586906
 H       -12.5261901262        2.1432323699        6.9883033219
 H        -7.8202966979        4.9242616683        7.6128243690
 H        -9.0636086085        6.0845154796        7.0927228329
 H        -7.7450753328        5.8824965221        6.0443609861
 H       -11.3387756052        3.9625473314        7.8153930264
 H        -9.7536399494        4.1352857352        8.6886241538
 H       -10.6743130863        2.5971072650        8.7263327687
 H        -7.6733716155        2.1566062232        6.5947502910
 H        -8.6518579112        1.2601055840        7.7283677962
 H        -7.8309612334        2.7384803995        8.2244992206
 H       -15.8380953023        0.8696610896        2.3726693938
 H       -15.5358490792        2.2722894102        3.4075689407
 H       -15.6620489430        0.7576027715        4.1823509122
 H       -12.6414531942       -0.8642482737        2.6244414013
 H       -14.3199568370       -0.7927805057        2.1475068570
 H       -13.9549748108       -1.1219958274        3.8701994742
 H        -8.5905392513        5.7423401124        0.3588774794
 H        -9.3110884071        5.1201742259        1.8751287942
 H       -10.1831729295        6.3171044014        0.9589314664
 H       -11.1120678026        5.2637419613       -1.6953475158
 H       -10.6302119402        3.6224357501       -1.9212623452
 H        -9.4317084431        4.9307197631       -1.7246299894
 H        -3.4590401252        0.3617476604       -2.7268274574
 H        -5.0056508061        0.2281837128       -3.4963168338
 H        -4.5353646703       -0.8982337921       -2.1221167749
 H        -3.2728581020        0.9718252594       -0.3934157484
 H        -4.4608326067        0.0612386920        0.1915115077
 H        -4.4331719041        1.7557947606        0.5961121482
 H        -4.9865397433        6.7970873946       -5.2604101973
 H        -6.1330422963        8.0343667441       -5.1098779815
 H        -6.5126458543        6.7392136391       -6.2495715116
 H        -6.5903903010        8.1643864459       -2.6854213024
 H        -5.0706478834        7.2690748115       -2.6217419526
 H        -6.5162182262        6.6710526584       -1.8524311259
 H       -12.3245738536        3.2939217937       -5.4014051604
 H       -12.3836272361        3.7026467333       -7.1589924519
 H       -13.8594445781        3.4174296976       -6.3444651364
 H       -14.8457210200        5.6514251585       -6.7944623652
 H       -13.4859405080        5.9899133193       -7.8802159131
 H       -14.2971288055        7.1435628763       -6.6227624663
 Na      -10.7007979095        3.0119889756        3.3120278477
