117

 C       -13.6479699071        4.3759489768       -1.8433353153
 C       -12.6596910079        3.7067523970       -0.9558841132
 O       -11.5192550058        3.7001461191       -1.2545819676
 C       -13.2578024629        2.9648946945        0.2237028566
 C       -12.4738951288        1.6555979322        0.6724840748
 O       -12.1148300604        0.8971452311       -0.1675772799
 C       -12.2771711531        1.1517935153        2.1933096302
 C       -10.8423052487        1.1322970727        2.6854911640
 C       -10.2439006350       -0.2085277985        2.3334611319
 O       -10.8417809198       -1.2262119747        2.5460110358
 C        -8.7659248381       -0.3603050727        1.6814080698
 C        -9.1891178641       -0.7441043866        0.1717345054
 O        -8.9550057801        0.1069138619       -0.6294799792
 C        -9.7777069549       -2.0630623363       -0.2460691362
 C        -9.4699757563       -2.7189345843       -1.6125987778
 C        -9.7689953573       -1.8801802863       -2.8896271923
 O       -10.2627480416       -0.7648047908       -2.8114179551
 C        -9.2190322757       -2.3707119171       -4.2920039691
 C        -7.8264411105       -1.7587013373       -4.2188825498
 O        -7.0153995207       -2.3072181922       -3.4669659426
 C        -7.3744039890       -0.3856670472       -4.9150700027
 C        -7.3168986820        0.7511744440       -3.8229981680
 C        -8.4403045168        1.6972082191       -3.5778717111
 O        -9.6087010813        1.4100011690       -3.6786577773
 C        -8.2123641855        3.2576727206       -3.1889287645
 C        -8.0444598826        3.5268272095       -1.6038944932
 O        -8.8091078600        2.9909564109       -0.7818744564
 C        -7.0824829264        4.6670462269       -1.0634174936
 C        -7.1093433775        4.8255731257        0.4804495147
 C        -6.4909529961        6.0306810488        1.2837592322
 O        -5.2500871036        6.0670612768        1.3267558860
 C        -7.3053524268        7.1549422571        2.0939875215
 C        -8.6364261352        7.5702035468        1.2457813070
 O        -9.0364191173        6.8949440454        0.3361823403
 C        -9.2639372515        8.8623707527        1.6733224189
 C       -10.7564331717        9.0281688798        1.9577278000
 C       -11.0046674439       10.3285678488        2.7539910458
 O       -10.3041125236       10.4902054592        3.6901183330
 C       -12.1583358312       11.3215676560        2.3146288986
 C       -13.6300583062       10.7922244527        2.6835225373
 O       -13.8230782185        9.7602093783        3.2530099563
 C       -14.7826772979       11.7037516084        2.2873398938
 C       -11.8369968164       12.5687304737        3.2748428058
 C       -11.7970874124       11.7279574667        0.8054721649
 C        -7.4726641527        6.4166517675        3.5170649055
 C        -6.3205454835        8.4471140021        2.1949399470
 C        -7.0537703936        3.8126608177       -4.0610485177
 C        -9.4219646432        4.1863038193       -3.5050696058
 C        -9.0609296365       -3.8296205668       -4.5290044303
 C       -10.0838210896       -1.7778598744       -5.3908389454
 C        -7.8750809502        0.9360111599        1.6373589575
 C        -7.8522907398       -1.4058269676        2.5425408859
 C       -13.2870912438        4.0921403815        1.3140450029
 C       -14.6260461502        2.3253416884        0.0896011437
 H       -14.2624093941        3.6215544772       -2.3002697007
 H       -13.1152267529        4.8012921039       -2.7199736670
 H       -14.1229095090        5.1971925513       -1.3920512371
 H       -12.6667617541        0.1974424510        2.1574661419
 H       -12.8659514202        1.7409991732        2.8973152930
 H       -10.8664062727        1.1767329095        3.7785150774
 H       -10.3990005338        2.0526272766        2.1809439070
 H       -10.8532455894       -1.9221347932       -0.2703339041
 H        -9.6375700041       -2.7694434678        0.4862169171
 H       -10.1058208735       -3.6155659917       -1.8385302756
 H        -8.4301926655       -3.0714231731       -1.7686959466
 H        -8.0292832604        0.0084088324       -5.7364772917
 H        -6.3759480110       -0.3263496722       -5.2081995416
 H        -6.4750246598        1.3075231070       -4.0709120137
 H        -7.0954731148        0.3614839986       -2.8516283183
 H        -7.4169036423        5.7086905131       -1.4415216861
 H        -6.0928182160        4.7432459602       -1.5916751245
 H        -6.6746698187        3.9395748852        0.9165506574
 H        -8.1582504866        4.8728238322        0.7625185959
 H        -8.8308028473        9.6437215803        0.9748851263
 H        -8.7519543865        9.1901222622        2.5704280019
 H       -11.0830901461        8.1709775864        2.5155811284
 H       -11.3553123823        9.0480326637        0.9768482453
 H       -15.4076952772       11.1654969592        1.5323547992
 H       -14.4234151535       12.4988587023        1.6665177262
 H       -15.3478834679       12.1194712892        3.1422791264
 H       -12.5003703389       13.4012861997        2.9902869273
 H       -10.8209598118       12.8482399479        3.1058878675
 H       -11.8009693904       12.0844734435        4.2302228993
 H       -11.0918686757       11.0377725250        0.3118905640
 H       -11.4454654993       12.6789862037        0.7399508030
 H       -12.5507630265       11.6756252920        0.2093346240
 H        -7.9122569936        7.0908688268        4.3190650470
 H        -6.5719859115        5.9982690615        3.9139139666
 H        -8.1174865664        5.5911986344        3.0568656051
 H        -6.4766899938        9.0194102636        3.1490496741
 H        -6.6001607590        8.9915989919        1.2756515113
 H        -5.3524312846        8.0029278208        2.1883792494
 H        -7.3664887900        4.0391873414       -5.1242937945
 H        -6.3216647168        3.0838937748       -4.1728540795
 H        -6.5072306463        4.6312178361       -3.6559326798
 H        -9.4187356463        5.2194284031       -3.0892956665
 H       -10.2942474557        3.7037039468       -3.1543978004
 H        -9.5682648842        4.1597999922       -4.5936057971
 H        -8.7092846766       -4.3960003956       -3.7499674998
 H        -8.2768480700       -4.0837022252       -5.2024725229
 H        -9.9727602186       -4.1785732935       -4.8313321970
 H       -10.6346524565       -0.8918681630       -5.1019808412
 H       -10.9466785811       -2.4946214319       -5.5679756862
 H        -9.5305416524       -1.7513668842       -6.3075176198
 H        -8.1758204527        1.5498518901        0.7365008170
 H        -6.8334457715        0.7056235123        1.5426723751
 H        -8.1507617627        1.6479408201        2.3861311870
 H        -7.9332638807       -0.9481148498        3.5292382663
 H        -6.8999379393       -1.4165128997        2.1878576682
 H        -8.3715630668       -2.4172576861        2.5054069821
 H       -12.3634860439        4.5135324426        1.6284993034
 H       -13.7543578171        3.5619116867        2.1809521990
 H       -13.9396930102        4.8845087934        0.9011856126
 H       -14.7206554728        1.5405453214        0.8073999471
 H       -14.7720776715        1.6998888035       -0.7563749244
 H       -15.5817762315        2.9282899667        0.1462403825
 Na      -10.6819436208        1.4068997891       -1.8273563085
