117

 C       -13.6763027177        6.9947375460       -3.9187259146
 C       -13.1908290132        5.5640872777       -4.3668825696
 O       -12.9940429792        4.6708281383       -3.5687439941
 C       -12.8218040185        5.3104244696       -5.9027632196
 C       -11.3834350463        5.9139116153       -6.1302273628
 O       -11.0034935908        6.4172432073       -7.1548113153
 C       -10.3999482771        5.6913825435       -5.0362854051
 C        -8.9845180981        6.2472069319       -5.2322239001
 C        -8.2983068410        6.7633116992       -4.0298837612
 O        -8.8750645385        7.2036394337       -3.0839459574
 C        -6.7333425349        6.5033303007       -3.9268124387
 C        -6.5282313234        4.8785933328       -3.8537345033
 O        -7.4474274465        4.1357278729       -3.7356198555
 C        -5.1201603941        4.3154993567       -4.0462128501
 C        -5.1554798685        2.8350817497       -3.5915040120
 C        -4.9367568807        2.7253933868       -2.0769334831
 O        -4.8190200243        3.7073680655       -1.3404995921
 C        -4.9121007207        1.2372799882       -1.5879601321
 C        -6.4902598388        0.9392234814       -1.4369489991
 O        -7.0787442032        0.2720795839       -2.2841032314
 C        -7.2603903124        1.6208010730       -0.3209863974
 C        -8.5448764724        2.4089516919       -0.7728114160
 C        -9.3007215845        3.0110867406        0.4330244762
 O        -9.1422411733        2.6033735450        1.5565618264
 C       -10.2314144455        4.2332344112        0.1699601871
 C       -11.6793762651        4.1563527728        0.8141990086
 O       -11.7647182457        4.4872701058        1.9885661416
 C       -12.7626975932        3.4147083329        0.0586320887
 C       -13.6995128554        2.7592231401        1.0874601044
 C       -13.0306870202        1.7301220328        1.9475785330
 O       -11.8623688620        1.3989197545        1.7582956758
 C       -13.8015688989        0.9738001943        3.0921420943
 C       -13.0447117410        1.5025025931        4.4199926155
 O       -12.9345634347        2.6959053640        4.5740950197
 C       -12.4514445727        0.5164940356        5.4645539752
 C       -11.6645477771        1.2815173878        6.5399012122
 C       -10.3940959855        1.9683462619        6.0649730573
 O        -9.9106128761        1.6537012175        5.0011279598
 C        -9.6849547572        2.9248320322        7.0446083846
 C        -9.1935329875        4.2352843500        6.1287613338
 O        -9.3835480601        4.3192652963        4.9353106584
 C        -8.4000195095        5.2571507329        6.8820376636
 C       -10.4851133504        3.4788460530        8.2524296330
 C        -8.4170688968        2.0679603690        7.4805700066
 C       -15.3307644755        1.3560029293        3.2327142434
 C       -13.5187011756       -0.4935396022        2.8605262684
 C        -9.4625934250        5.4238979430        0.8097990260
 C       -10.4860898754        4.5186431296       -1.3432524563
 C        -4.3914084546        0.1941943313       -2.6464642576
 C        -4.2075939418        1.1413093498       -0.2794935021
 C        -6.0426043179        7.0468387363       -5.2166435540
 C        -6.1655880974        7.1032419021       -2.7090152032
 C       -12.8687385158        3.8499710282       -6.2324124734
 C       -13.8619136393        6.0363018147       -6.7284555710
 H       -14.6699175946        7.1423658336       -4.4521080922
 H       -12.9255267430        7.7082926226       -4.2184846385
 H       -13.9144670037        6.9505233628       -2.8525141371
 H       -10.2079167007        4.6776687416       -4.6843896494
 H       -10.7136637461        6.0329138082       -4.0187492243
 H        -8.9531494306        7.0583486110       -5.9805523255
 H        -8.2889970502        5.5209067902       -5.6446669550
 H        -4.4164657102        4.8676973497       -3.4039651017
 H        -4.8112504727        4.4484700955       -5.0861432143
 H        -4.5080572247        2.2457359258       -4.2234051400
 H        -6.1340299001        2.2758927880       -3.7923084190
 H        -6.5833337658        2.2826924958        0.3014818809
 H        -7.4535486602        0.9263079483        0.5022042563
 H        -9.1260957889        1.6773899779       -1.2599235819
 H        -8.2378503263        3.2441031532       -1.4410756988
 H       -12.3866252212        2.6808981085       -0.6779346543
 H       -13.3228765788        4.1771216589       -0.4735897020
 H       -14.5426179114        2.2642204004        0.4188869930
 H       -14.1596762804        3.5399227311        1.7007871850
 H       -11.8847256330       -0.3160927804        5.0920326430
 H       -13.2571947675       -0.0311020651        5.9713840323
 H       -11.2409866230        0.5521441341        7.2534212483
 H       -12.2080652176        2.1566432925        6.9398666688
 H        -7.6567244449        4.8497452926        7.5991260027
 H        -9.1583921831        5.9417449698        7.4064120168
 H        -7.9773350034        5.9816554367        6.1496116955
 H       -11.4129690215        3.9618906841        7.8718603663
 H        -9.7500565468        4.1185367699        8.7100929261
 H       -10.8426589178        2.6603473844        8.8445603997
 H        -7.5912108190        1.9884377903        6.8065197151
 H        -8.8232860523        1.0302597575        7.7091969728
 H        -8.0837030702        2.4730363738        8.3803186098
 H       -15.9624109860        0.9729063382        2.4001148678
 H       -15.4686877760        2.4281768551        3.2742298153
 H       -15.7175060248        1.0128744294        4.2563316582
 H       -12.5021810530       -0.6598897103        2.5432167324
 H       -14.1734452590       -0.7647884620        1.9984759283
 H       -13.7543417381       -1.0769182619        3.6999674079
 H        -8.5754149824        5.6759781643        0.2022076026
 H        -9.1837031060        5.2388005710        1.8501700156
 H       -10.0649545363        6.3640548511        0.8646260734
 H       -11.2740035842        5.2961133863       -1.4395920663
 H       -10.8380903729        3.6483307224       -1.8264330848
 H        -9.6190832411        4.9911437713       -1.8018788880
 H        -3.3796556251        0.4953760212       -3.0067762850
 H        -5.0581186663        0.1919560491       -3.5130414021
 H        -4.3800136967       -0.8044829268       -2.2201960058
 H        -3.1954069844        1.2439749666       -0.4936084350
 H        -4.3481830094        0.1619145567        0.1803742389
 H        -4.4230284550        1.9726486580        0.4085346588
 H        -4.9698072200        6.9441284802       -5.1369606405
 H        -6.2313071547        8.1116733066       -5.3616898253
 H        -6.4076724387        6.5310104194       -6.1103181278
 H        -6.4374855264        8.1580043915       -2.6698830189
 H        -5.0718934329        7.0431796838       -2.7601222391
 H        -6.4841790594        6.6509896740       -1.7310850154
 H       -12.2710511831        3.3088591535       -5.5393547611
 H       -12.4527307200        3.7392742024       -7.1674786778
 H       -13.8750007406        3.4534232159       -6.3478590628
 H       -14.8095054975        5.4757520113       -6.7222616894
 H       -13.4819534124        6.2292974049       -7.7308977461
 H       -14.3001568812        6.9582611458       -6.2529322775
 Na      -10.6753876960        2.9207903269        3.2377847975
