117

 C       -13.7696169486        7.5182365773       -4.1488618788
 C       -13.2377181830        6.0663324140       -4.3720575273
 O       -13.1242470601        5.2120696759       -3.5010450588
 C       -12.8529361991        5.6259249090       -5.8005091918
 C       -11.3025792906        5.8734918834       -6.1541624362
 O       -10.9327439852        6.3105879954       -7.2099143482
 C       -10.4264705921        5.8872573231       -4.8654540441
 C        -8.9429194742        5.9320866565       -5.3244475769
 C        -8.0597171603        6.3087808619       -4.1180874928
 O        -8.5179774273        6.6799416223       -3.0816494971
 C        -6.5320865016        6.0779326694       -4.2914955646
 C        -6.2484346533        4.6366540247       -3.7571602351
 O        -7.1746132584        3.9835672074       -3.3033457265
 C        -4.7892054512        4.1416297672       -3.6280057290
 C        -4.6614573339        2.5945362306       -3.3518127901
 C        -4.6578832855        2.2287654898       -1.8284901495
 O        -4.4364554501        3.0794125116       -0.9949904172
 C        -5.1648416006        0.7591543849       -1.4891704807
 C        -6.7938515004        0.9379939775       -1.4712016565
 O        -7.5024513646        0.3379772198       -2.2320223336
 C        -7.2906015352        1.8590722455       -0.3544150502
 C        -8.4554742268        2.6914646384       -0.8940163440
 C        -9.3086811666        3.2444913052        0.1861019703
 O        -9.1468438570        2.9160696634        1.3527393626
 C       -10.4459259867        4.2416668981       -0.1449989587
 C       -11.8405989862        3.7374174410        0.5793036200
 O       -12.1100508135        4.1597519278        1.6845908400
 C       -12.7104554469        2.6657088686       -0.0232332409
 C       -13.6593804409        2.0683669215        1.0239838452
 C       -12.9139707249        1.4532412571        2.1407800072
 O       -11.7522903024        1.0811293253        2.0423142288
 C       -13.7368547799        1.0027742772        3.4487127619
 C       -13.0986775688        1.9077844647        4.6805380882
 O       -12.8271818158        3.0937373544        4.4975729213
 C       -12.7900938679        1.3011696315        6.0150945529
 C       -11.9464938707        2.2779499323        6.8102836215
 C       -10.5621828136        2.4747853635        6.2327989174
 O       -10.2278817933        1.7823234789        5.2973877270
 C        -9.5030617973        3.3500089087        6.9755197052
 C        -9.1990543674        4.5146133626        5.8546910107
 O        -9.7388738848        4.4344890875        4.7768010073
 C        -8.1731434372        5.5719139668        6.1987507418
 C        -9.9069004862        3.8810000305        8.3367459882
 C        -8.2170927309        2.5276813872        6.9686594218
 C       -15.2177757479        1.3411338918        3.4932103764
 C       -13.6063940011       -0.5338370321        3.5624870350
 C       -10.0603826167        5.6741395186        0.5371217295
 C       -10.6130538853        4.4191876869       -1.6634250884
 C        -4.7156623659       -0.2358160904       -2.5885023581
 C        -4.6573336485        0.3240434542       -0.0394929801
 C        -6.0818809178        6.2887899606       -5.7690576647
 C        -5.8970468573        7.1182823222       -3.3336139434
 C       -13.0348075025        4.0560082552       -5.8177020444
 C       -13.7571061835        6.2157256746       -6.8967714973
 H       -13.0464278779        8.1388122179       -3.7083761891
 H       -14.5230683382        7.3129438810       -3.3616793403
 H       -14.3306194691        7.9198675556       -4.9803949763
 H       -10.5078806888        5.0365205083       -4.1736269260
 H       -10.4496449357        6.8147903109       -4.2577610600
 H        -8.8794660726        6.5742017591       -6.1830475333
 H        -8.7147818877        4.9164702586       -5.7276665858
 H        -4.2946717376        4.6022545696       -2.7755050953
 H        -4.1266989048        4.4626374791       -4.3958723603
 H        -3.7155105083        2.3648127180       -3.8591590337
 H        -5.4961198606        2.0303670251       -3.7000298499
 H        -6.5672417902        2.6110671105       -0.0124805867
 H        -7.6884135140        1.0955877079        0.3947578751
 H        -9.0747614928        2.1707079906       -1.6406293806
 H        -8.0047530928        3.4066301603       -1.5357391683
 H       -12.1167409522        1.8317792650       -0.4066990608
 H       -13.3353593338        3.0555290295       -0.8829338281
 H       -14.3041230980        1.2757684480        0.5481121794
 H       -14.3407336279        2.9380830504        1.3973139834
 H       -12.1422382901        0.4289262991        5.8151577075
 H       -13.7325916261        0.9834612383        6.4938841812
 H       -11.8112027811        1.7989280203        7.8284188171
 H       -12.4124583468        3.2248685623        7.1430983177
 H        -8.1004668108        5.8851717679        7.2908200863
 H        -8.1980535175        6.5273381828        5.6603595302
 H        -7.2310927267        5.0457393574        5.9503452573
 H       -10.8756460711        4.3890555771        8.3973374748
 H        -9.0876883323        4.5310051584        8.7565747789
 H        -9.7530088300        2.9573835664        8.9754578690
 H        -7.9710107652        2.1452463801        5.9431019644
 H        -8.3230107838        1.7003567787        7.6109413384
 H        -7.3701136834        3.1995602779        7.3443898711
 H       -15.7955251651        0.8171895138        2.7402473686
 H       -15.5255598015        2.4143119584        3.3770465288
 H       -15.6756461136        1.0118021686        4.3695532630
 H       -12.5640023697       -0.8277790914        3.4795161844
 H       -14.0884990095       -0.9540849222        2.7279061641
 H       -14.1023769073       -1.0210344006        4.4390360444
 H        -9.2159085147        6.1248970245        0.0541237011
 H        -9.7341189195        5.4760694872        1.5477212048
 H       -10.8618529648        6.3465793700        0.4940386611
 H       -11.3803268852        5.1421064241       -1.8685679681
 H       -10.8368979261        3.4333993570       -2.1668625562
 H        -9.6588117037        4.7358499700       -2.0865538523
 H        -3.6607200432       -0.0733073096       -2.6242835498
 H        -5.1841381940       -0.0909169950       -3.5649578034
 H        -4.9176761383       -1.2916451650       -2.2865121618
 H        -3.5504618969        0.5736353401       -0.1124028897
 H        -4.9495866914       -0.7509330755        0.2280581962
 H        -5.0415313201        0.9946696584        0.6971650128
 H        -4.9818709900        6.2658957760       -5.8275244333
 H        -6.3700523715        7.2928894209       -6.0483448238
 H        -6.4197218060        5.6217361607       -6.5569128625
 H        -6.0871518382        8.0908175792       -3.8465620709
 H        -4.8087797441        6.9454525809       -3.2041587254
 H        -6.4348714183        7.0782081822       -2.3976992206
 H       -12.5993883077        3.5064259683       -4.9610397811
 H       -12.6182700402        3.6609941037       -6.7971977139
 H       -14.0735453273        3.8624419080       -5.7884187953
 H       -14.6656773025        5.5681301124       -6.8524543494
 H       -13.4015212305        6.0759381591       -7.9087098216
 H       -13.8346588981        7.2788629245       -6.9090308161
 Na      -10.5915362671        3.0347806663        3.1442194332
