117

 C       -13.7680382122        7.9793715078       -4.7439153538
 C       -13.5061200133        6.4900890624       -4.5231269807
 O       -13.6685825358        5.9417820531       -3.4315591907
 C       -12.8479035967        5.7238277679       -5.8008072488
 C       -11.3470911719        6.0974246608       -5.8223520479
 O       -10.8659706152        6.8084733042       -6.6910264554
 C       -10.3982280924        5.5848615872       -4.7848739628
 C        -8.8943415367        5.4967663679       -5.3614012674
 C        -7.9021651071        5.8071633605       -4.1434565356
 O        -8.3079462567        6.3391598264       -3.1387146463
 C        -6.3825268951        5.5643478693       -4.3693929673
 C        -5.9494342641        4.1792029163       -3.8171019304
 O        -6.7354669130        3.3802989005       -3.3378954452
 C        -4.4335347981        3.8190151894       -3.7542375940
 C        -4.1974392228        2.3264151227       -3.3267003713
 C        -4.6758744852        2.1047407153       -1.8547398187
 O        -4.5506145353        2.8745004727       -0.9110478377
 C        -5.3096617343        0.7251940775       -1.5489644958
 C        -6.8444694019        0.9673457017       -1.3806939673
 O        -7.6324529522        0.4834589044       -2.2019234153
 C        -7.2891757391        1.9523605651       -0.2799318647
 C        -8.5804649935        2.5968738024       -0.7626782780
 C        -9.4396403245        3.1927011529        0.2909463347
 O        -9.1730652525        3.1749058090        1.4637570027
 C       -10.7229039831        3.9960098634       -0.2388215431
 C       -11.9956779084        3.4935799104        0.5833907035
 O       -12.3737463732        4.0094743675        1.6168113423
 C       -12.6953374438        2.2367563219        0.0294998066
 C       -13.6075948534        1.5758448306        1.0169958149
 C       -12.8680876674        1.3591943165        2.3500878504
 O       -11.6862437659        1.1696209210        2.3849267536
 C       -13.7677756447        1.1602063128        3.7087431619
 C       -13.0389362202        2.1830471436        4.7399870641
 O       -12.8782244352        3.3623602315        4.4284331066
 C       -12.8499807702        1.7832801843        6.2198348320
 C       -11.7956731452        2.6799271212        6.8585721267
 C       -10.4483067864        2.6529179349        6.2232328467
 O       -10.3592612227        1.9985934986        5.1823504274
 C        -9.3596323388        3.5982102170        6.8048687986
 C        -9.1541759064        4.8316633603        5.7453622134
 O        -9.5990201735        4.8306352215        4.6211931343
 C        -8.2556538837        5.9052375851        6.2842624455
 C        -9.7646037884        4.1961729112        8.2054114447
 C        -7.9839609708        2.8032589721        6.8506709249
 C       -15.2219799317        1.5933382908        3.5667181839
 C       -13.7199869311       -0.2826087028        4.1892837725
 C       -10.4876122446        5.4916673045        0.0979311198
 C       -10.9542383170        3.8581332330       -1.7301404607
 C        -5.1250241260       -0.3085851079       -2.6710465072
 C        -4.6960516277        0.1369977140       -0.2404834361
 C        -5.9887732537        5.6034479027       -5.8686161538
 C        -5.5393126387        6.6722078814       -3.6169282785
 C       -12.8784148703        4.1509076858       -5.6349195059
 C       -13.3975293255        6.0898897909       -7.1893137673
 H       -13.4010082426        8.4695092565       -3.8628928767
 H       -14.8703156220        8.2538271876       -4.8305553171
 H       -13.1574676307        8.4089519637       -5.5844109123
 H       -10.7691882686        4.7298282109       -4.2416178111
 H       -10.3811287365        6.4459186186       -4.0788168749
 H        -8.9780228949        6.2412213574       -6.1763829234
 H        -8.7435772706        4.5363574916       -5.9248076481
 H        -3.8189950800        4.3081965687       -2.9363142726
 H        -3.8615291264        4.1091256770       -4.6539164498
 H        -3.1100175115        2.1622169707       -3.2387427203
 H        -4.8255100920        1.6443434126       -3.9528561787
 H        -6.5961973889        2.7306868173       -0.0957271444
 H        -7.4385455408        1.3422753708        0.6060372520
 H        -9.2134866640        1.8216605637       -1.2612759884
 H        -8.3707076083        3.2395806422       -1.6624530070
 H       -11.9833938776        1.5006145420       -0.1954708393
 H       -13.1588258402        2.4039898854       -0.9477409483
 H       -14.0642467179        0.6913416534        0.7530829542
 H       -14.4711133681        2.2261433720        1.1415620686
 H       -12.5945689347        0.7300697919        6.2623520711
 H       -13.8379990792        1.9657050517        6.6395311811
 H       -11.9034382365        2.5813488446        7.9407658124
 H       -12.1872782800        3.6700471181        6.9430080574
 H        -8.8639231084        6.7015782890        6.8227598289
 H        -7.7615153574        6.4042073156        5.4226783121
 H        -7.5049009853        5.5394782334        6.9595650238
 H       -10.7175170491        4.5827590763        8.3953671516
 H        -9.0330224294        4.9791779864        8.2965677126
 H        -9.7564891696        3.4673948274        9.0322428253
 H        -7.4703914935        2.7495236794        5.8871476086
 H        -8.1320440770        1.8496471164        7.2029620900
 H        -7.3190857877        3.3111656004        7.6036601410
 H       -15.7298624456        0.9821837100        2.7809875507
 H       -15.4136542647        2.6749600621        3.2265267349
 H       -15.8307746482        1.5088244625        4.4425245219
 H       -12.7183593390       -0.6244580218        4.3774140479
 H       -14.2241698355       -0.9469590960        3.5774138050
 H       -14.2082078934       -0.2988864320        5.1925309732
 H        -9.6256751518        5.8073923458       -0.4942795456
 H       -10.3109138750        5.5406873415        1.1918294139
 H       -11.3061456267        6.1713230826       -0.0774433478
 H       -11.9252363620        4.1980274501       -2.0809022034
 H       -10.8273521565        2.7729495483       -2.0166769071
 H       -10.2220957065        4.4911698770       -2.2416522676
 H        -4.1522546701       -0.2403114247       -3.0899433109
 H        -5.8285982555       -0.1653777674       -3.4960378353
 H        -5.2213175570       -1.3292784603       -2.2210163247
 H        -3.6883172739       -0.0171971548       -0.3231863705
 H        -5.0595589999       -0.8148279034       -0.0498898805
 H        -4.9176848621        0.8532247692        0.5820092549
 H        -4.9005869143        5.4936907717       -5.9402012424
 H        -6.2133532488        6.5234318232       -6.3523006156
 H        -6.4415676081        4.8366995272       -6.5070488609
 H        -5.8747365729        7.6279918254       -4.0980118888
 H        -4.4606265582        6.4594914499       -3.8028411827
 H        -5.8074972119        6.6325795076       -2.5771954048
 H       -12.4919127877        3.8571675588       -4.6901427252
 H       -12.3724350945        3.6127105271       -6.4449645340
 H       -13.8730404008        3.9041469242       -5.6377004110
 H       -14.3723852353        5.5966140025       -7.4775850723
 H       -12.6197043280        5.7167846412       -7.8680668666
 H       -13.5964266227        7.1415189871       -7.3576316843
 Na      -10.7960260273        3.2794362737        3.1629416022
