117

 C       -13.4469528411        8.2610422472       -5.2607698159
 C       -13.1216348027        6.8640804782       -4.8821059865
 O       -13.1866207666        6.4280245573       -3.7592992599
 C       -12.6318121611        5.9280071579       -6.1598786351
 C       -11.0522194862        6.2792745374       -6.2526767928
 O       -10.7063528613        7.2686829070       -6.8856393037
 C       -10.0543971928        5.4913851391       -5.3020076779
 C        -8.7257305734        6.2101491348       -4.8718802994
 C        -7.8326528057        5.1872039886       -3.9952333890
 O        -8.2988655909        4.8088600618       -2.9180608276
 C        -6.3551391542        4.9247501937       -4.4076890497
 C        -5.9762086914        3.5343388350       -3.8440128766
 O        -6.7692514309        2.6640773749       -3.5747801882
 C        -4.5189691171        3.2779342515       -3.8130178704
 C        -4.1121316185        1.8906895105       -3.3346372902
 C        -4.6693067763        1.7448565960       -1.8817991465
 O        -4.5276638220        2.6971999194       -1.1309399260
 C        -5.3408835697        0.5104577692       -1.3186998041
 C        -6.8967249943        0.8064656480       -1.4706948810
 O        -7.5378188761        0.1186216192       -2.2019171103
 C        -7.4922105260        1.9155006090       -0.5554632949
 C        -8.9229106399        2.3033036228       -0.9634706053
 C        -9.6441257407        3.0529419340        0.0911565140
 O        -9.2978019816        3.0522377026        1.2376894141
 C       -11.0146081530        3.8192946590       -0.3264631027
 C       -12.1141747313        3.2848577360        0.6439281144
 O       -12.2554019959        3.8532330062        1.7188463004
 C       -12.9620588945        2.0771116194        0.2333456631
 C       -13.9213655892        1.6320333518        1.4047335585
 C       -13.2025466907        1.4215909152        2.6892738371
 O       -12.0021636220        1.1730382680        2.5843333767
 C       -13.8934036353        1.5394918427        4.1470569870
 C       -12.9081661300        2.3133707626        5.1097686786
 O       -12.5820067205        3.4401437530        4.6819135471
 C       -12.5535684331        1.8713763472        6.5185319527
 C       -11.6582859720        2.9773045862        7.0958122170
 C       -10.2632847719        3.0920190099        6.2811141962
 O        -9.9768872456        2.2133425664        5.4509003501
 C        -9.2526379429        4.2273743701        6.6189737619
 C        -9.4664627896        5.4315631632        5.5942315598
 O        -9.9864300435        5.2959483822        4.5008985914
 C        -8.7092173825        6.7844705141        5.8683631010
 C        -9.2810465946        4.6281069190        8.0913081049
 C        -7.7676388581        3.6175147030        6.3183876739
 C       -15.2326932312        2.3261668997        4.0674965267
 C       -14.0743710216        0.1378737791        4.7956668497
 C       -10.8175503604        5.3580716518       -0.0822486664
 C       -11.3508316224        3.6375676362       -1.7934848194
 C        -4.9915578838       -0.8272410170       -2.0244676208
 C        -5.0780154664        0.4310891107        0.1714787594
 C        -6.1457001694        4.9549999707       -5.9704810615
 C        -5.4796166562        6.0189694259       -3.7054146991
 C       -12.8874857592        4.4621023344       -5.6938203574
 C       -13.4035542522        6.1217307823       -7.5042653756
 H       -13.1649742125        8.8355401299       -4.3279561197
 H       -14.5066828427        8.5447656865       -5.4503100503
 H       -12.8444875016        8.6451397872       -6.0984244335
 H        -9.7187440562        4.5937437724       -5.8728811867
 H       -10.5235175801        5.0023243074       -4.4074525378
 H        -8.9711905258        7.1302896404       -4.3388710864
 H        -8.3004001603        6.5694856207       -5.7941735979
 H        -3.9527027828        3.9845105553       -3.1585784977
 H        -4.1767812708        3.3678484385       -4.8593943624
 H        -3.0634691662        1.7604225514       -3.3574957460
 H        -4.3527961038        1.0799525239       -4.0269312400
 H        -6.8457856840        2.8028275054       -0.5489112054
 H        -7.4632077727        1.6256984361        0.5293971439
 H        -9.4270035118        1.3690266910       -1.2331844840
 H        -8.7652393227        2.9686499888       -1.8474476162
 H       -12.3227147843        1.2175285046       -0.0083864786
 H       -13.5852303625        2.3141634211       -0.6346728351
 H       -14.5462179510        0.7304109843        1.0123986885
 H       -14.5748562192        2.4839395490        1.5095040089
 H       -12.0443629288        0.8731317977        6.5065300199
 H       -13.5688939368        1.7146924698        6.9744156737
 H       -11.6478086727        2.7366295148        8.1867630154
 H       -12.2758598928        3.8773627541        6.8959845128
 H        -9.3407177411        7.4333784734        6.4392867971
 H        -8.5790280427        7.2458985722        4.8820641424
 H        -7.7520502417        6.7257992266        6.2899506490
 H       -10.2386392245        4.9914207714        8.4091911801
 H        -8.6417455920        5.5018582894        8.3935157026
 H        -9.0486767294        3.8101211123        8.8203151384
 H        -7.7611908733        2.7300583629        5.6999750720
 H        -7.4197510508        3.2967341171        7.2565275023
 H        -7.0992297877        4.3892285379        5.9296562416
 H       -15.8492115938        2.0280337177        3.2049390524
 H       -15.0367159461        3.4415537383        3.8987381000
 H       -15.7013919765        2.2861050926        5.0201726177
 H       -13.1365806978       -0.3824752774        4.8450313349
 H       -14.6875514472       -0.4498612313        4.2108383670
 H       -14.5615890518        0.2193930642        5.7903059808
 H        -9.9794074882        5.7250614644       -0.7109422558
 H       -10.5561995732        5.4920857571        1.0023983224
 H       -11.6836624789        5.9069818821       -0.3515270215
 H       -12.3884936345        3.9167771944       -1.9811181632
 H       -11.2312685372        2.5719991483       -2.1635151875
 H       -10.8081863672        4.3235159687       -2.4614708405
 H        -4.0295321684       -1.1744796021       -1.7552606761
 H        -5.0370942323       -0.7361023106       -3.1142981111
 H        -5.7610368699       -1.6244193878       -1.8634897470
 H        -4.0970837900       -0.0508127491        0.4508705703
 H        -5.8666848872       -0.0451737382        0.8550111634
 H        -4.9554454029        1.4895654928        0.5699199625
 H        -5.3054436882        4.3377398104       -6.2818626470
 H        -5.8514769730        5.9401957624       -6.2606544020
 H        -7.0628940080        4.7644323999       -6.5192528305
 H        -5.9274807937        6.9867847631       -4.0538822197
 H        -4.4105958046        5.9492615432       -4.0173255293
 H        -5.6306974534        5.8812391894       -2.6361152012
 H       -12.4582450068        4.3162367323       -4.7294598503
 H       -12.2818256621        3.8306979521       -6.3380941291
 H       -13.8928302457        4.2131126825       -5.7780508367
 H       -12.6470020049        6.2701902183       -8.3514609107
 H       -13.9171977336        7.0445881047       -7.6400278866
 H       -14.0579333805        5.3075207359       -7.5382790103
 Na      -10.5670318626        3.1882729846        3.3336194178
