117

 C       -13.6405062277        8.1499680248       -4.9884152457
 C       -13.4120931736        6.6502984937       -4.6899592571
 O       -13.6072562702        6.2013926180       -3.5843201156
 C       -12.7827080382        5.7859766746       -5.8254542035
 C       -11.2544087400        6.3021613823       -5.8896242486
 O       -11.0270812656        7.2053040728       -6.7139391800
 C       -10.3216059662        5.5889064338       -4.9383811839
 C        -8.8216196163        5.4870442868       -5.4364172260
 C        -7.8212398794        5.4942499963       -4.2101439322
 O        -8.3181383753        5.6727020228       -3.0955877085
 C        -6.2472463964        5.4037539001       -4.4461194536
 C        -5.7498135327        3.9947192737       -3.7245341603
 O        -6.5106271201        3.1454035426       -3.3274258703
 C        -4.2950397475        3.7089206078       -3.6998199553
 C        -4.1075816171        2.1357509827       -3.4224048745
 C        -4.5952835189        1.9625576334       -1.9405836757
 O        -4.4683634194        2.8443648393       -1.0926095486
 C        -5.2861431810        0.5606374588       -1.5049738940
 C        -6.8549788895        0.8630805838       -1.4043213688
 O        -7.6489840542        0.1630250177       -2.0382901438
 C        -7.4361054103        1.8779733824       -0.4010804323
 C        -8.5985044774        2.6885112968       -0.9241709181
 C        -9.6395409691        3.0389331187        0.1099350727
 O        -9.4762396818        2.7715801917        1.2742628143
 C       -10.8894047473        3.9619812783       -0.3246165184
 C       -12.1668981803        3.3402575049        0.5215034809
 O       -12.6385012726        4.0003700341        1.4179345218
 C       -12.6716972920        1.9662598367        0.1075243716
 C       -13.6591621279        1.4869232566        1.2321510419
 C       -12.9550544522        1.3953506711        2.5982441826
 O       -11.7498665603        1.2551496359        2.7095111883
 C       -13.8392679760        1.3038670018        3.9014615586
 C       -13.1749145160        2.2828062653        4.9615930113
 O       -12.9552883021        3.4514748106        4.6346139006
 C       -12.7398908503        1.7303449151        6.3299467064
 C       -11.8662509077        2.7668825608        7.0866575955
 C       -10.5036625169        2.9764311003        6.3426675319
 O       -10.3604083822        2.3592797699        5.2922985946
 C        -9.2929298460        3.8096901787        6.7520637753
 C        -9.0071177723        4.9402497714        5.7100815519
 O        -9.1865133580        4.8633707603        4.5083137862
 C        -8.5708634149        6.3723034796        6.2552744047
 C        -9.4319982580        4.4098422577        8.1262573925
 C        -8.0258575657        2.9251432489        6.6545301574
 C       -15.3053970332        1.7207162568        3.8101335982
 C       -13.8202760029       -0.2134061165        4.2395595144
 C       -10.6700338319        5.4186648059        0.2112109800
 C       -11.0777514063        3.9978023384       -1.8643208822
 C        -5.0530515459       -0.5316282798       -2.5747413862
 C        -4.7968790755        0.2063579685       -0.0483653638
 C        -5.8941403665        5.4026254165       -5.9817907634
 C        -5.4314942111        6.4754253027       -3.6566726115
 C       -12.9246440054        4.2402668780       -5.5818742429
 C       -13.4009660198        5.9534978427       -7.2607869019
 H       -14.1881539008        8.5500963897       -4.1364857268
 H       -14.1798133383        8.3894031497       -5.8991386391
 H       -12.7002419064        8.7192092629       -4.9202943595
 H       -10.7363555746        4.6294684815       -4.7226680811
 H       -10.3094248735        5.9593063112       -3.8991616129
 H        -8.5212484765        6.2681627384       -6.1680888545
 H        -8.7592623957        4.5126540318       -6.0183319269
 H        -3.6819977382        4.3143083925       -2.9754476648
 H        -3.7965712553        3.8615546600       -4.6416285967
 H        -3.0058914898        1.8291202425       -3.4893024386
 H        -4.6792781704        1.6347254847       -4.2384899187
 H        -6.6433279067        2.4914820634        0.0461015430
 H        -7.8003485817        1.4179002828        0.5222047654
 H        -9.0309634705        2.1977394029       -1.7769779507
 H        -8.2604207147        3.6995044256       -1.2712290033
 H       -11.9183461945        1.2301311054       -0.0376713426
 H       -13.2157743795        1.9237072184       -0.8568349671
 H       -14.0338620864        0.5311706543        0.9448883757
 H       -14.5103379053        2.0921344871        1.2203715427
 H       -12.0786504708        0.9427127183        6.0011271242
 H       -13.5924518415        1.3226858355        6.8285819244
 H       -11.8477564026        2.4438353833        8.1407317907
 H       -12.4201186401        3.6350968131        7.3519257328
 H        -9.3740370594        6.8404302302        6.9011771439
 H        -8.0999592554        7.0595504348        5.4517423914
 H        -7.7757037059        6.2376997733        7.0075865947
 H       -10.0626673663        5.2720778643        8.0686973206
 H        -8.4646599824        4.7780768698        8.6096953825
 H        -9.8209147957        3.6909126524        8.8905772025
 H        -8.1257418231        2.1983495407        5.8119530500
 H        -7.9181630282        2.4515597355        7.6148377767
 H        -7.0950242346        3.5142469900        6.4730172481
 H       -15.9334151628        1.0319690552        3.2364149409
 H       -15.3834592513        2.7111075210        3.2852460377
 H       -15.8399518044        1.7699869713        4.7186224041
 H       -12.7974614693       -0.5804881616        4.3167908112
 H       -14.3795087489       -0.7832013072        3.5549715529
 H       -14.2336163180       -0.3634439729        5.2649820873
 H        -9.9798411934        6.0494241292       -0.3169896301
 H       -10.4058159075        5.3586422709        1.2759634296
 H       -11.6161708335        5.8081591324        0.1594487793
 H       -11.8554341904        4.6897623607       -2.1167240779
 H       -11.3987543910        3.0160795946       -2.3115103044
 H       -10.1423244218        4.2300700339       -2.3589987799
 H        -4.0289213565       -0.8605910541       -2.6075381087
 H        -5.2828946531       -0.1817939980       -3.5822282664
 H        -5.6424853931       -1.4558986905       -2.3247559532
 H        -3.8956336283       -0.2549570090       -0.0186283377
 H        -5.4798421688       -0.3891408218        0.4436919236
 H        -4.7342373228        1.1937822399        0.5017542365
 H        -4.8094245043        5.2664753817       -6.0951539056
 H        -6.1462649085        6.3214611927       -6.4856420488
 H        -6.2437625100        4.5393286326       -6.5207043569
 H        -5.5715132309        7.4555788559       -4.1205488559
 H        -4.3915623357        6.1620931132       -3.7902590749
 H        -5.7819535086        6.4316661165       -2.6338178361
 H       -12.7861762727        4.0688240691       -4.5118313134
 H       -12.2918592959        3.6323864863       -6.2538950779
 H       -13.9326714631        3.9508665107       -5.6874559763
 H       -14.2628513606        6.6986947668       -7.3926939176
 H       -13.6161416852        4.9830721157       -7.5674303447
 H       -12.7213273773        6.5294398346       -7.8414759117
 Na      -10.7535650809        3.6089067409        3.1988456470
