117

 C       -13.5122739093        8.2463207798       -5.2456463172
 C       -13.2751253088        6.7898505580       -4.8750972793
 O       -13.3187282500        6.4110811542       -3.7268183175
 C       -12.6428588064        5.8156324116       -6.0375036300
 C       -11.1041784506        6.2234049772       -6.0734105216
 O       -10.7576375220        7.1324544206       -6.7645070007
 C       -10.1392015894        5.4779086490       -5.2079764686
 C        -8.7859340873        6.1869612681       -4.9915159721
 C        -7.9378128673        5.3244647578       -4.1185180780
 O        -8.4301896562        4.9057931368       -3.0758343002
 C        -6.2798238218        5.0743015660       -4.3816362502
 C        -5.7877896167        3.6866692009       -3.8881858226
 O        -6.6278075170        2.8826159960       -3.5303777278
 C        -4.3349479327        3.3073603712       -3.8618819195
 C        -4.2003316588        1.8820448769       -3.2965506881
 C        -4.6183072446        1.8239233084       -1.8178458455
 O        -4.5304110403        2.8316288768       -1.1389521403
 C        -5.3487269416        0.5340375913       -1.3568767471
 C        -6.9473889114        0.8284488136       -1.4890973914
 O        -7.6758235516        0.2077206364       -2.2241005812
 C        -7.4600517786        2.0078415813       -0.6460827620
 C        -8.9089931178        2.3812913751       -1.0247766658
 C        -9.6977372178        3.0313497521        0.0986708734
 O        -9.3144576066        3.0171813378        1.2880134954
 C       -10.9785725791        3.8500792271       -0.2648772329
 C       -12.1349936634        3.3640679029        0.6147039892
 O       -12.3662210230        3.8305362586        1.7177670687
 C       -12.8808631810        2.0490781130        0.2425810539
 C       -13.7658802100        1.5667021342        1.4237453990
 C       -13.0594387440        1.4270560171        2.7994950799
 O       -11.8930028643        1.1015920376        2.8047645293
 C       -13.9026206107        1.4897458727        4.1186356896
 C       -13.0157575522        2.4983101124        4.9627106976
 O       -12.6847058078        3.5837479855        4.5762252420
 C       -12.6144875006        1.9905481054        6.4672227204
 C       -11.5292692021        2.8163924268        7.1751875433
 C       -10.3838174103        2.9381405623        6.2824155548
 O       -10.1261227909        2.1999641826        5.3586992803
 C        -9.2424715335        4.0715318659        6.6487609839
 C        -9.3547258548        5.2422850906        5.6046591341
 O        -9.7710022047        5.1315741589        4.4711088247
 C        -8.7340667943        6.5548560611        6.0305509085
 C        -9.4401512982        4.7421346105        8.0478501545
 C        -7.7813488649        3.4408597937        6.4379256865
 C       -15.3301365202        2.0618487635        3.9389058167
 C       -14.0452886744       -0.0556152847        4.4677073505
 C       -10.6294311486        5.2988871217        0.0566077464
 C       -11.3709448701        3.6488731170       -1.7366806887
 C        -5.0106842760       -0.7404438484       -2.1302002799
 C        -4.9966631967        0.2620315864        0.1923289339
 C        -6.1207723024        5.0793448708       -5.9558286690
 C        -5.4529360152        6.1952043186       -3.7447488844
 C       -12.7668009531        4.3475694015       -5.5714168758
 C       -13.2797689673        6.2194975002       -7.3961183861
 H       -13.2959439956        8.9545477905       -4.4321726745
 H       -14.5601840660        8.3106197247       -5.4532326294
 H       -12.9873350397        8.5948207525       -6.1472629824
 H       -10.0214295526        4.4451563108       -5.5418184988
 H       -10.5708956114        5.2533324911       -4.2442962615
 H        -9.0075995844        7.2021066754       -4.6447167872
 H        -8.3794412033        6.3818330750       -6.0213116998
 H        -3.7145847135        3.8577986103       -3.1275451628
 H        -3.8858758107        3.4506571253       -4.8607184211
 H        -3.1720665245        1.4087102205       -3.4000843127
 H        -4.7415245720        1.1248266366       -3.8579448452
 H        -6.7322817864        2.8281792803       -0.7528736582
 H        -7.3113467621        1.9034557907        0.3786005632
 H        -9.3399185414        1.3939623624       -1.2845952353
 H        -8.8205777190        3.0091067382       -1.8929343318
 H       -12.2490616392        1.2313324995       -0.0504852230
 H       -13.5363556278        2.3063270706       -0.5784774385
 H       -14.1596769152        0.5889274725        1.2306697512
 H       -14.5957047929        2.2828723489        1.4079510794
 H       -12.2916102296        0.9787098371        6.3676921138
 H       -13.5570992298        1.9776050888        6.9781028945
 H       -11.3037106880        2.3365368442        8.1235993447
 H       -12.0147776285        3.7620252980        7.4013858077
 H        -9.2046202835        7.0246500093        6.9350366849
 H        -8.4965384304        7.2991746270        5.2590040673
 H        -7.6715680820        6.1765668224        6.3487724425
 H       -10.2491803184        5.5128145238        8.1783899907
 H        -8.5895210370        5.2251714087        8.4824776110
 H        -9.4685976450        3.9745509207        8.7914637755
 H        -7.6667575201        3.0441605612        5.4255384786
 H        -7.6944977734        2.5316926548        7.1366343640
 H        -7.0120178700        4.1584068246        6.6444476642
 H       -15.8837737338        1.3162912937        3.3502894304
 H       -15.3900970467        2.9487336303        3.3831595708
 H       -15.8112201170        2.2606460944        4.9541994009
 H       -13.0776989709       -0.5672331738        4.5406883697
 H       -14.6122142782       -0.5532763249        3.6110783993
 H       -14.6427981378       -0.2037302963        5.3253530046
 H        -9.6614141561        5.4947823153       -0.3187916895
 H       -10.5679295141        5.4435803740        1.0900000273
 H       -11.3074217233        5.9582972790       -0.4878772213
 H       -12.1876644130        4.3110292872       -2.0487838156
 H       -11.6113957521        2.6417893413       -1.9782697714
 H       -10.5343461086        3.8738403572       -2.3995506946
 H        -3.8955126892       -0.8761812387       -2.0719366476
 H        -5.2857495085       -0.7045912250       -3.1823703514
 H        -5.4936737501       -1.6192560551       -1.7989606698
 H        -3.9162064742        0.2718319589        0.2990060945
 H        -5.4521980706       -0.5997300651        0.5507326627
 H        -5.2654398217        0.9777963985        0.8300259832
 H        -5.0939168073        5.0670034445       -6.3289892477
 H        -6.5064850711        6.0734027160       -6.2908872930
 H        -6.7208123959        4.3354948394       -6.4774860851
 H        -5.8721119913        7.0972623411       -4.1078904438
 H        -4.4385666346        6.1133682112       -4.0784946894
 H        -5.5591353526        6.1143435709       -2.6492261390
 H       -12.5106217286        4.2336895258       -4.5024554113
 H       -12.2792145084        3.6591767964       -6.2313922824
 H       -13.8679151352        4.1399950438       -5.7409812960
 H       -12.5111954792        6.6253517726       -7.9622751358
 H       -14.0099194242        7.0430708903       -7.3122140521
 H       -13.7929556614        5.3098179599       -7.8191877391
 Na      -10.5856370183        3.4653786385        3.2129515482
