117

 C       -13.5985109974        8.2545968152       -5.1228808841
 C       -13.2510802400        6.7357349904       -4.8408367264
 O       -13.4155597943        6.2492905732       -3.7225268821
 C       -12.6200407379        5.8094868383       -5.9048782510
 C       -11.1641862426        6.2530329759       -5.9280066619
 O       -10.7182907135        7.1367741255       -6.6836307950
 C       -10.2355063519        5.5257769784       -5.0172360068
 C        -8.7833547397        5.9590905117       -5.2516757945
 C        -7.7806946742        5.3695156296       -4.1491446529
 O        -8.1402444561        4.9730801694       -3.0656387277
 C        -6.2848629904        5.2091148366       -4.5083892401
 C        -5.8942578721        3.8344038127       -3.9181700726
 O        -6.7039544631        3.0837329207       -3.4174165641
 C        -4.4448518125        3.4625536729       -3.9025449237
 C        -4.1676273251        2.0761684687       -3.3594148795
 C        -4.5869815626        1.8719587694       -1.8642245553
 O        -4.4711224264        2.7656162887       -1.0322657087
 C        -5.3309139552        0.5272252265       -1.3808963513
 C        -6.9049513646        0.8341759934       -1.3885081125
 O        -7.6996479262        0.1990383438       -2.1013738698
 C        -7.4382269414        1.9519104792       -0.5240684759
 C        -8.7670094286        2.4910134849       -1.0326892296
 C        -9.6546225054        2.9800443120        0.0851669494
 O        -9.3808375677        2.8016559042        1.2311859768
 C       -10.9787314980        3.8431756704       -0.2547853778
 C       -12.1426933439        3.3420856351        0.6391188414
 O       -12.4703333274        3.9752048164        1.6295099467
 C       -12.7520151307        2.0415514551        0.2507167478
 C       -13.6450970783        1.4690623157        1.3405839060
 C       -13.0049427257        1.4133459697        2.6616852847
 O       -11.7902813452        1.3659261129        2.7204218797
 C       -13.8417165784        1.3754492239        4.0575998975
 C       -13.0973593945        2.4033044927        5.0662824457
 O       -12.8839319063        3.5795889495        4.7283444549
 C       -12.8268142112        1.8542819363        6.4561523276
 C       -11.6706002187        2.7556835968        6.9650612700
 C       -10.3893953366        3.0083815228        6.1140570023
 O       -10.2413256713        2.3250675019        5.0953734972
 C        -9.2321050821        3.9537140773        6.6698718913
 C        -9.1910388518        5.2117287036        5.6051367412
 O        -9.4519493827        4.9947044867        4.4399893231
 C        -8.6442872859        6.5134274923        6.1148817696
 C        -9.6131896628        4.3601601431        8.1423756838
 C        -7.8597160763        3.2078428247        6.6957490519
 C       -15.2776659062        1.9786538249        3.7986131190
 C       -13.7943368676       -0.0434093199        4.6218631007
 C       -10.6392271494        5.3118659661        0.1106652265
 C       -11.4111264963        3.8347116779       -1.6866247949
 C        -5.0885630263       -0.6517353405       -2.3146156051
 C        -4.9285395184        0.2859589160        0.0715194808
 C        -5.9161008739        5.2498759241       -5.9508854098
 C        -5.6767729380        6.5348526331       -3.8355424786
 C       -12.9361107320        4.3436262569       -5.5224752993
 C       -13.2082489749        6.0251009196       -7.3009402723
 H       -13.7594366387        8.8067112774       -4.2394672441
 H       -14.3504655824        8.5258927778       -5.9059481727
 H       -12.6449093769        8.6951505307       -5.4152161260
 H       -10.4140994617        4.4451451181       -5.0627824329
 H       -10.5039676602        5.6062810195       -3.9419613329
 H        -8.7600963446        7.0550447280       -5.1949027601
 H        -8.6303184409        5.7886659830       -6.2807111462
 H        -3.8586430801        4.1278743841       -3.2972160063
 H        -3.9820383169        3.5254305408       -4.8764892168
 H        -3.1729624265        1.7548545097       -3.4790051397
 H        -4.6971049591        1.3453158475       -4.0103184028
 H        -6.7231251571        2.7130800529       -0.1976173094
 H        -7.5045596434        1.5074440435        0.5600019091
 H        -9.2733493334        1.6517481758       -1.4883743403
 H        -8.5292195117        3.2313525102       -1.8207876523
 H       -11.9044626477        1.3171315263        0.1378157813
 H       -13.2682692687        2.1059879649       -0.7498416392
 H       -13.9410769525        0.4236378329        1.1845933731
 H       -14.6167859057        2.0815150685        1.2850095333
 H       -12.5882267575        0.7748344831        6.3927025999
 H       -13.8070498908        1.9930380931        6.9716397419
 H       -11.3054457063        2.2823964719        7.9207789071
 H       -12.2540670478        3.5979256718        7.3812145496
 H        -9.3624754328        6.8965186825        6.8239098421
 H        -8.6078210912        7.1526974621        5.2367628691
 H        -7.7171123414        6.5555227899        6.5308451324
 H       -10.4231229800        5.0081649228        8.1237968233
 H        -8.8575760205        4.9968194791        8.6134305912
 H        -9.4719841093        3.6175321836        8.9212755965
 H        -7.4288140848        3.2697601357        5.6939251369
 H        -7.9683551468        2.2206299074        6.9546735399
 H        -7.1402107443        3.7271245471        7.3951939522
 H       -15.8847175693        1.5050645706        3.0386342389
 H       -15.1530187591        3.0516066724        3.4782828222
 H       -15.8815717152        1.9654377375        4.6645868674
 H       -12.7483066354       -0.3142423677        4.7850198905
 H       -14.2306372129       -0.7550330818        3.9728428209
 H       -14.3546152036       -0.1157885334        5.6128833067
 H        -9.8471372906        5.7079709086       -0.5688110897
 H       -10.1864045137        5.3375944254        1.1339569672
 H       -11.5408996350        5.9085153685       -0.0488164017
 H       -12.3475735049        4.3394921113       -1.8335757805
 H       -11.5044091987        2.8260030012       -2.1000527976
 H       -10.6200162866        4.2223330202       -2.3083214507
 H        -4.1860746496       -0.6663015230       -2.8577351300
 H        -5.9156863125       -0.7172415645       -3.0275124117
 H        -5.1655659553       -1.6071292909       -1.7460241400
 H        -3.8633365374        0.2313357781        0.1845892537
 H        -5.5199916142       -0.6091606561        0.3983972314
 H        -5.2553273400        1.1123527667        0.8927774725
 H        -4.8246883671        5.2090711385       -6.0707331895
 H        -6.2859622734        6.0964377891       -6.4847427111
 H        -6.2675012741        4.3107280391       -6.4419120012
 H        -6.1969952610        7.3791475926       -4.3074638287
 H        -4.6213152418        6.5881143972       -4.0647313485
 H        -5.9199749797        6.4686671694       -2.8251462834
 H       -12.6239976217        4.1498364882       -4.4865050899
 H       -12.4692229801        3.6944111868       -6.3370205772
 H       -13.9834703938        4.1425815559       -5.6203450313
 H       -13.1433569199        7.1232012908       -7.6563238959
 H       -14.2551227449        5.7262338018       -7.1253897037
 H       -12.7303197483        5.3299723730       -7.9721071944
 Na      -10.7018769021        3.4394500358        3.0962912771
