117

 C       -12.9531950314        8.3108349605       -5.1157223541
 C       -12.7778082471        6.8180254790       -5.1195860564
 O       -12.9347863560        6.2600873462       -4.0525322012
 C       -12.4307148896        6.1167984110       -6.5152928266
 C       -10.7893633620        6.2335120931       -6.4185222824
 O       -10.3242988932        7.1362195764       -7.0323134319
 C       -10.0092891831        5.4045737129       -5.4263108005
 C        -8.8830644341        6.2488806126       -4.7848641157
 C        -7.9816437680        5.3563822712       -3.9033969936
 O        -8.1611065588        5.2404570799       -2.6882233203
 C        -6.6727973002        4.7566859011       -4.5229618151
 C        -6.2886304962        3.2671152111       -4.0382838346
 O        -7.1641269125        2.4910716048       -3.7381562089
 C        -4.7417204906        2.8622207200       -3.8130526323
 C        -4.7320218509        1.4630276553       -3.1706803055
 C        -4.8130433026        1.4295085199       -1.6269412021
 O        -4.5402299759        2.4050932819       -0.9520481512
 C        -5.3312903938        0.1515585523       -0.9475694435
 C        -6.8988007585        0.3503572663       -0.9435534239
 O        -7.6392215392       -0.3760717235       -1.6113091861
 C        -7.3952509878        1.5852169338       -0.1715879081
 C        -8.7971945884        2.0008609401       -0.7870947041
 C        -9.7553653835        2.6811333351        0.1411734269
 O        -9.5870878214        2.6443385115        1.3684763360
 C       -11.0315151410        3.4203538743       -0.4308137883
 C       -12.1477332291        3.3715025453        0.5969154283
 O       -12.2572566812        4.2043573540        1.5079333799
 C       -13.2493373748        2.2841973441        0.5270648797
 C       -14.0114398392        2.2274249545        1.8201776840
 C       -13.1801852410        1.8075203678        3.0271033062
 O       -12.0311807664        1.4477978489        2.9746633065
 C       -13.8904652824        1.9004167714        4.4409804334
 C       -12.8099270787        2.6120318379        5.3176682516
 O       -12.6044860626        3.7893931437        5.0765634557
 C       -12.1084505842        1.8538738945        6.4812144926
 C       -11.0337504345        2.8169906089        7.1204981453
 C        -9.9366706119        3.2323203843        6.0766515031
 O        -9.7122174592        2.5385125905        5.0940040709
 C        -9.0816638926        4.5464717350        6.3755260669
 C        -9.5490370095        5.5923395424        5.1890110067
 O        -9.4093102154        5.3458955009        4.0085186659
 C       -10.1575135084        6.9782402383        5.6197720225
 C        -9.0809590171        5.0970900489        7.7860997411
 C        -7.6038579784        4.2110038456        5.9006647239
 C       -15.1485064605        2.8052481770        4.4770385578
 C       -14.1622872209        0.3832727741        4.7749742021
 C       -10.5840755019        4.9416974088       -0.6022368258
 C       -11.4565034157        2.8622752453       -1.7993469314
 C        -4.9820339749       -1.2408905261       -1.5385423892
 C        -4.9157255443        0.1868670840        0.5933504031
 C        -6.7707874717        4.7023754555       -6.0485742071
 C        -5.5888004614        5.7680189469       -4.1241066505
 C       -12.8722687454        4.6315044147       -6.3963178946
 C       -13.0757729356        6.8699535244       -7.6845605433
 H       -12.7769881857        8.8896575829       -4.1947299089
 H       -13.9483531338        8.5211314285       -5.3576186180
 H       -12.4283319655        8.7720210877       -5.9478887799
 H        -9.6666498666        4.5667323662       -6.0395556905
 H       -10.7279755990        5.1891491637       -4.6242388794
 H        -9.4476078900        6.9680686243       -4.1787133964
 H        -8.2725820843        6.7516111488       -5.5756054148
 H        -4.3091607949        3.4744338526       -2.9769955029
 H        -4.1571317703        2.9196605028       -4.7241580859
 H        -3.7754429329        0.9338218391       -3.4083837843
 H        -5.5535693233        0.8203488694       -3.5516287344
 H        -6.7410316154        2.3986712762       -0.3844825554
 H        -7.5169919103        1.3576581634        0.7939963420
 H        -9.2868142796        1.0653121219       -1.0916757561
 H        -8.6362726026        2.4977540124       -1.7730678736
 H       -12.8159573937        1.3155765703        0.4588037110
 H       -13.8448707622        2.4445178784       -0.3586882608
 H       -14.9038224205        1.4737366043        1.6177503744
 H       -14.5261652218        3.1839744944        1.9181175452
 H       -11.5879458775        0.9678409113        6.1248211641
 H       -12.8530848979        1.4092593481        7.1459519120
 H       -10.5368187564        2.2557368207        7.9144161799
 H       -11.5412246236        3.7082449400        7.4222764628
 H       -10.9895189393        6.7738868230        6.3204692755
 H       -10.5844179932        7.4289994975        4.7156376289
 H        -9.3741950940        7.6829777039        6.1766328401
 H       -10.1379698942        5.4445202053        7.9924331404
 H        -8.3545945397        5.9450397223        7.8765017608
 H        -8.8380749823        4.3455282411        8.5151408039
 H        -7.7438522700        3.6027970707        4.9866417979
 H        -6.9668117809        3.7823731063        6.7569911815
 H        -7.1273744371        5.1009103748        5.6315699360
 H       -15.9387831014        2.2919343959        3.9428048984
 H       -14.8428190488        3.7015909233        4.0709303941
 H       -15.5114489959        2.8918097524        5.5008487195
 H       -13.1986666710       -0.1311863934        4.5374470679
 H       -14.9302840771        0.0669761947        4.0624028630
 H       -14.4240544954        0.0899390212        5.8012782339
 H        -9.8258908791        4.8959047016       -1.3912000717
 H       -10.1933785078        5.3548192373        0.3333667110
 H       -11.4010761645        5.5826788021       -0.9010259491
 H       -12.1834445899        3.5459329656       -2.1447677604
 H       -11.9261490316        1.8679170003       -1.7947724974
 H       -10.6172626523        2.8032471801       -2.4610076834
 H        -3.9861538615       -1.5317888102       -1.2393799919
 H        -5.0213550087       -1.3482770937       -2.6185308607
 H        -5.6949467514       -1.8947940575       -1.0282675846
 H        -3.9811513154       -0.2505244480        0.7910458280
 H        -5.6110918751       -0.1612707303        1.2702825548
 H        -4.8027042855        1.2124239801        0.8748659456
 H        -5.9427257683        4.1689678072       -6.5390711715
 H        -6.8718610684        5.7397426655       -6.3812570193
 H        -7.6175694260        4.1070214840       -6.2991932350
 H        -5.9500115330        6.7084405048       -4.4632436923
 H        -4.6562729558        5.5862539788       -4.5976017238
 H        -5.4587217255        5.8217963336       -3.0351441247
 H       -12.2752433162        4.1546804232       -5.5412663709
 H       -12.6945505822        4.1534477602       -7.3587964107
 H       -13.9677734479        4.4484926354       -6.1901287667
 H       -12.4731781202        6.7027678172       -8.5303240924
 H       -13.2780550658        7.8899071766       -7.4900271882
 H       -14.0069166513        6.3947030925       -8.0603806442
 Na      -10.6872253034        3.4901889742        3.2308422485
