117

 C       -12.9341105428        8.3708770971       -5.0413604296
 C       -12.8630082816        6.8366201231       -5.1433417149
 O       -12.9264678281        6.1494901446       -4.1290103219
 C       -12.3745395916        6.1545094798       -6.4676104112
 C       -10.8568224628        6.3465720118       -6.4364816592
 O       -10.2703485633        7.1078662417       -7.1640869024
 C       -10.1044224357        5.4006239223       -5.4073204677
 C        -8.8827335863        6.2561940122       -4.7432495944
 C        -7.9460507767        5.4105744958       -3.8762465959
 O        -8.1941654514        5.3249223615       -2.7026986361
 C        -6.6690297830        4.7918956688       -4.5354457726
 C        -6.3557001183        3.2193043853       -3.8924221685
 O        -7.2447600732        2.4290925637       -3.7937277408
 C        -4.9471665812        2.8056466864       -3.8108020944
 C        -4.7008315957        1.4139628495       -3.2086103592
 C        -4.7432768894        1.3690281930       -1.6159921798
 O        -4.4842645296        2.3908405209       -1.0156249260
 C        -5.3749241801        0.1256057927       -0.8013028412
 C        -6.9071064746        0.3317555705       -0.9010854235
 O        -7.6383862264       -0.4881931037       -1.4497522540
 C        -7.5126745214        1.4890413731       -0.1145596504
 C        -8.8302567918        1.9429748808       -0.8034933602
 C        -9.7583357477        2.5759831841        0.1844526986
 O        -9.5271103899        2.6394894955        1.3994157820
 C       -11.0073151077        3.3765963901       -0.4519685606
 C       -12.1172982833        3.4134609936        0.6056114596
 O       -12.1785028568        4.2837167156        1.4503105268
 C       -13.1818633246        2.2610373867        0.5474947819
 C       -14.0617474528        2.2412259553        1.8405581975
 C       -13.2311435062        1.8996470980        3.0779629899
 O       -12.1229022907        1.4173561192        2.9194981933
 C       -13.8654927701        1.9118884272        4.4714010264
 C       -12.8516874128        2.6316255365        5.4209602095
 O       -12.5350415389        3.7586069551        5.1640408905
 C       -12.0225984559        1.9559529449        6.5367874947
 C       -10.9054141778        2.7911211568        7.1265916894
 C        -9.9110725883        3.2913242153        6.0921541792
 O        -9.6777607798        2.6757887032        5.0950598286
 C        -9.0466569779        4.6417315917        6.2519582042
 C        -9.5436642216        5.6510093447        5.2002951440
 O        -9.4986555816        5.3680418524        3.9950590950
 C       -10.3151399866        6.9228910211        5.4935680899
 C        -9.1009667220        5.0747240054        7.7057699023
 C        -7.5213012706        4.2067649979        5.8577028323
 C       -15.1870928487        2.7481652062        4.5544359023
 C       -14.2828375743        0.4550297508        4.7755485752
 C       -10.5173202037        4.8221898448       -0.6360770381
 C       -11.5484986692        2.8077188872       -1.8020874126
 C        -4.9644854164       -1.1943286105       -1.5186922663
 C        -4.9196103832        0.0781060935        0.6740720020
 C        -6.7933102448        4.5842416331       -6.0855574500
 C        -5.4590304867        5.7854931530       -4.1849457424
 C       -12.8100178766        4.6111763259       -6.4589129018
 C       -12.9097773364        6.8969860497       -7.6691283963
 H       -12.7863111958        8.7889009488       -4.0762562225
 H       -13.8876179131        8.8613985641       -5.3870028056
 H       -12.1524534894        8.8175454680       -5.7508921648
 H        -9.7311421039        4.6101668216       -6.0708314062
 H       -10.9001678470        5.1372096231       -4.6777129019
 H        -9.3220692193        6.9913118777       -4.1176625915
 H        -8.3494025284        6.6953960890       -5.6085092656
 H        -4.2944532117        3.5937784183       -3.2799679362
 H        -4.6970838178        2.7340100471       -4.8983778896
 H        -3.6633343985        1.1130748903       -3.5153685827
 H        -5.4097193876        0.7294155579       -3.6230477211
 H        -6.8672934965        2.3672508611       -0.0973183638
 H        -7.7630720593        1.0778013062        0.8668185440
 H        -9.2915336925        1.0553344616       -1.2425456155
 H        -8.6324477033        2.5510739037       -1.7287788151
 H       -12.7372658436        1.3276926909        0.3229693621
 H       -13.8247460165        2.5020101647       -0.3028655279
 H       -14.8904444477        1.6256025094        1.6847908431
 H       -14.5446109806        3.2755330096        1.7659119149
 H       -11.5694936623        1.0224117158        6.1354524778
 H       -12.5834679398        1.5221721962        7.3953130467
 H       -10.4250255251        2.1249316162        7.8832843580
 H       -11.3987894433        3.6879233142        7.5707029145
 H       -11.2181564098        6.6113919387        6.0888851734
 H       -10.5936703960        7.5384326152        4.6069206317
 H        -9.6200561300        7.3793358365        6.2059621064
 H       -10.1319737186        5.5024314523        7.9934699617
 H        -8.3273694048        5.7717162943        7.9287161203
 H        -8.8210755256        4.1969247647        8.3208095682
 H        -7.5839509469        3.8263052392        4.8514693060
 H        -7.1578517141        3.5143256774        6.6314061502
 H        -6.8554597919        5.0874082236        5.8867740867
 H       -15.9434326820        2.3226490005        3.8907116208
 H       -14.9160153175        3.7772430368        4.4013517501
 H       -15.5546749542        2.5486599853        5.5992669294
 H       -13.3813670525       -0.1715601415        4.7544388412
 H       -14.9147451005        0.2111534610        3.8571661318
 H       -14.8205967725        0.2715577850        5.6653082033
 H        -9.8266642752        4.8233131235       -1.4255619393
 H       -10.0992979480        5.1942749023        0.2381991103
 H       -11.3893717826        5.4642629834       -0.8846381500
 H       -12.4075086700        3.4252768173       -2.0491199211
 H       -11.8938582536        1.8240851378       -1.6840713888
 H       -10.8092911344        2.7340439584       -2.5795493941
 H        -3.8767286201       -1.4495730622       -1.3680273373
 H        -5.0899190279       -1.1042515608       -2.5978872549
 H        -5.6074606148       -1.9587046042       -1.1699293394
 H        -3.9549734827       -0.3425785722        0.7510027227
 H        -5.6520782681       -0.2738522417        1.4169591299
 H        -4.7499314408        1.1829408315        1.0277257584
 H        -5.9302339458        4.1390522204       -6.5689484952
 H        -7.0453701594        5.5612435198       -6.5305741463
 H        -7.5646058945        3.8483340018       -6.2195999772
 H        -5.7131634945        6.7805378311       -4.4891039467
 H        -4.5682147604        5.5347472954       -4.7371176744
 H        -5.2626927451        5.8049782232       -3.1072149261
 H       -12.2496684997        3.9834978466       -5.7718285561
 H       -12.7171512331        4.3325995011       -7.4918359984
 H       -13.9020776015        4.4275962002       -6.2435959864
 H       -12.3286115332        6.8152807387       -8.5055712998
 H       -13.1457719867        7.9253969749       -7.3614780940
 H       -13.8498996849        6.4765038898       -8.0379472750
 Na      -10.6549708440        3.6877668771        3.1464687149
