117

 C       -13.1357572223        8.3958233962       -5.1673149292
 C       -12.8923923867        6.9526617323       -4.9715015987
 O       -12.8975767836        6.3149921493       -3.9263264155
 C       -12.5039022620        5.9980530612       -6.3462335373
 C       -10.9034954415        6.1758999925       -6.3050766070
 O       -10.5110017020        7.1796034589       -6.8490596191
 C       -10.0543382829        5.2304891587       -5.4433019659
 C        -8.9263079215        6.1171133931       -4.7344660185
 C        -7.9678370412        5.2097512684       -3.9889355713
 O        -8.2843953461        4.7734959314       -2.8983703287
 C        -6.4537950314        4.8578681803       -4.4411515475
 C        -6.2312849338        3.4146397118       -3.8943534488
 O        -7.1990858857        2.7105469850       -3.7306245435
 C        -4.7681127433        3.0141644682       -3.7713699773
 C        -4.5980481090        1.5892244180       -3.2031454180
 C        -4.7619686468        1.6145727526       -1.6949989607
 O        -4.4458545892        2.6185486326       -1.0663814235
 C        -5.4230175891        0.3185386029       -1.0642943951
 C        -6.8981876589        0.5856855914       -1.1069758192
 O        -7.5795484039       -0.0511783966       -1.9160257099
 C        -7.5196686495        1.6335848402       -0.2494185306
 C        -8.7606185636        2.2978333720       -0.9570088552
 C        -9.7440404719        2.8634720846        0.0319629325
 O        -9.4772173137        2.8123145491        1.2590599174
 C       -11.0276833144        3.6185527010       -0.4091355429
 C       -12.1893453133        3.3383576364        0.6377395508
 O       -12.2069953954        3.9760852174        1.6722407251
 C       -13.1905342975        2.1924305434        0.3430793643
 C       -14.1089412618        1.9124052616        1.5719975482
 C       -13.2662089435        1.6409816460        2.8107447885
 O       -12.1261655895        1.2742945382        2.6625934351
 C       -13.9081794655        1.8007759341        4.3043470868
 C       -12.8287879618        2.6514464308        5.1326245791
 O       -12.4399278883        3.7644816201        4.9387048042
 C       -12.2357832140        2.0352243197        6.5153744529
 C       -11.1201796520        2.8940504560        7.1476329784
 C        -9.9729740126        3.1227541597        6.2831660429
 O        -9.7040642727        2.3606661839        5.4006718298
 C        -9.0548591256        4.4151019046        6.4582056222
 C        -9.5699828884        5.5091430081        5.3424602671
 O        -9.8449636029        5.1732020555        4.2012630850
 C        -9.6125465234        6.9804748658        5.7027414184
 C        -9.2677724294        4.8669612235        7.8815249896
 C        -7.6357102275        4.0010916112        6.1498355175
 C       -15.2792389403        2.5173518442        4.3008883461
 C       -14.0811404576        0.3877186293        4.9719141621
 C       -10.6957601232        5.1629726857       -0.3894684700
 C       -11.4936061670        3.2163510558       -1.8429484557
 C        -5.0171773584       -0.9369127923       -1.7798835958
 C        -4.9402176360        0.2770054348        0.4000913209
 C        -6.3264826793        4.7289843983       -6.0021668152
 C        -5.4601828610        5.9143315472       -4.0364022103
 C       -12.8498978376        4.5359373733       -6.0558252336
 C       -12.9986714036        6.5623395266       -7.7087364149
 H       -13.3819455430        8.8551642984       -4.1940314918
 H       -14.0088196798        8.5954519886       -5.8073150067
 H       -12.3244651423        8.9347373667       -5.7594241714
 H        -9.4888982665        4.4555046671       -6.0024961823
 H       -10.7352141625        4.8470712311       -4.6460050712
 H        -9.3508262509        6.8681750812       -4.1268869907
 H        -8.3323373590        6.6266486596       -5.5253115303
 H        -4.2798112491        3.6989068112       -3.0165312051
 H        -4.2882674307        3.0534413736       -4.7659400345
 H        -3.5806261154        1.1911717228       -3.4274049575
 H        -5.2251667071        0.8901287681       -3.7020810814
 H        -6.7484591738        2.4833033924       -0.1948922119
 H        -7.9746165264        1.2814425262        0.6934129709
 H        -9.2358910353        1.5285180379       -1.5521622572
 H        -8.3822473983        3.0832610596       -1.6815930671
 H       -12.6788920616        1.2618476373        0.1219215894
 H       -13.7731546361        2.5265702278       -0.5715011633
 H       -14.5932722035        0.9620107305        1.3838987458
 H       -14.8774534053        2.6772234731        1.5788840080
 H       -11.8455815484        0.9940018325        6.3123818515
 H       -13.0395710829        1.8445881498        7.2723138094
 H       -10.7386665437        2.2492456305        7.9798416357
 H       -11.6405689103        3.8360978310        7.3806731497
 H       -10.2642439409        7.2259282676        6.4983293056
 H        -9.8023689698        7.5925555812        4.8685986737
 H        -8.5494660309        7.0635969623        6.0305565669
 H       -10.3183228110        5.1325692034        8.1742600654
 H        -8.5868857420        5.6706812191        8.1025351436
 H        -9.1653563336        4.0344307354        8.5399276777
 H        -7.6131022223        3.7023229977        5.1264909237
 H        -7.3683003945        3.1379877274        6.8220231911
 H        -6.9534184602        4.7551727781        6.3865969052
 H       -16.0134149051        2.0188143538        3.6098616284
 H       -15.1830295634        3.5681792829        4.1500379422
 H       -15.6732209518        2.2588787887        5.3561597998
 H       -13.1164865787       -0.0768513776        5.0979609443
 H       -14.6937385191       -0.1974249887        4.2611579907
 H       -14.5751664477        0.4164701179        5.8822372345
 H        -9.7577289464        5.2972097777       -0.8848634819
 H       -10.7443840746        5.5698169552        0.5838827390
 H       -11.4781679974        5.7030896921       -0.9754979063
 H       -12.5421428154        3.5199071705       -2.0629606842
 H       -11.4542470036        2.1346435731       -2.0216865062
 H       -10.8523750771        3.7664590774       -2.5592970388
 H        -3.9124960304       -0.9106146525       -1.9718221332
 H        -5.5378025321       -1.1481806237       -2.7104911508
 H        -5.1052976355       -1.7393019996       -1.0755680251
 H        -3.8251935487        0.4028745202        0.4467236320
 H        -4.9903922586       -0.7142072894        0.9731150893
 H        -5.4192988098        1.0663963617        1.1013661645
 H        -5.2990818010        4.4297717544       -6.2390935187
 H        -6.5782716921        5.7041377801       -6.4680828472
 H        -6.9888213354        3.9883528497       -6.3936059771
 H        -5.7346446370        6.8589023757       -4.5013377352
 H        -4.4819438911        5.5527089970       -4.3930820422
 H        -5.3810750482        6.0189466017       -2.9029053061
 H       -12.7485733101        4.3689623598       -4.9917713127
 H       -12.1185833911        3.9578879114       -6.4821062010
 H       -13.8625513100        4.2526261868       -6.3478402384
 H       -13.1306897179        5.8650201448       -8.4791491301
 H       -12.3414819465        7.4086538828       -8.0433733917
 H       -14.0054835611        7.0866579391       -7.5145823507
 Na      -10.5578775273        3.2414525006        3.2672970161
