117

 C       -13.0382892177        8.3366120973       -5.1354816531
 C       -12.9094798981        6.8831247809       -5.0903663683
 O       -12.8608350166        6.3192808349       -3.9879611758
 C       -12.4841101361        6.0654435980       -6.3597333503
 C       -10.9541667782        6.3128170884       -6.3081332068
 O       -10.3784453168        7.1937680657       -6.9399453083
 C       -10.1184872162        5.3066106213       -5.4816580321
 C        -8.9441866467        6.0844184696       -4.7569534352
 C        -7.8888221839        5.2287645580       -3.9236413514
 O        -8.1527761711        4.8741382052       -2.8133783898
 C        -6.5118702984        4.8852999569       -4.4989357370
 C        -6.2692731898        3.3398040743       -3.9480354102
 O        -7.2015530015        2.6214908183       -3.6894037516
 C        -4.8362202976        3.0113623379       -3.7009235900
 C        -4.6559661827        1.5570806415       -3.2743613168
 C        -4.7839086564        1.5152851670       -1.7164739890
 O        -4.5263710967        2.5313655939       -1.0738709347
 C        -5.3059331446        0.2758966009       -0.9415933870
 C        -6.9647183647        0.5247545198       -1.1020257349
 O        -7.5993181737       -0.1755534504       -1.8567919142
 C        -7.5574157376        1.6973168411       -0.2970590963
 C        -8.8549434760        2.2245037905       -0.9050945986
 C        -9.7571637868        2.8370749646        0.1507242741
 O        -9.4982375999        2.7028292022        1.3345644932
 C       -11.0252118398        3.5689367776       -0.4240083754
 C       -12.1854389724        3.3530157714        0.6073764563
 O       -12.2113539526        4.0478091717        1.5950823698
 C       -13.1718498119        2.2390350170        0.3690383498
 C       -14.1035232570        2.0016041156        1.6182950782
 C       -13.2394102946        1.7128499057        2.8862189230
 O       -12.0619861761        1.4095785819        2.7326363968
 C       -13.8347358685        1.8635886219        4.3943992179
 C       -12.7953843332        2.6790999732        5.2975441605
 O       -12.5221324739        3.8055752836        4.9351845050
 C       -12.1220837589        1.9300882836        6.4802605093
 C       -11.1852618130        2.8715479908        7.2072547626
 C       -10.0132281658        3.1133475968        6.1799645048
 O        -9.7232871308        2.3699597134        5.2671841169
 C        -9.1562176064        4.4413225850        6.4025672885
 C        -9.4732449490        5.5697632884        5.2629012119
 O        -9.6260242470        5.2408979645        4.0902370031
 C        -9.7710038222        6.9238105228        5.7905731194
 C        -9.3026753381        4.9849998477        7.8397242444
 C        -7.5753591989        4.0736946542        6.0095800430
 C       -15.2068598120        2.5521287420        4.3665694516
 C       -14.0613753900        0.4553150791        4.9839633702
 C       -10.6787188106        5.0650824553       -0.4677409831
 C       -11.4002257676        3.0804436190       -1.8426945269
 C        -5.0140053857       -1.0498509568       -1.6493206211
 C        -4.8454466537        0.2538577271        0.5415832717
 C        -6.4627386195        4.7019653425       -6.0696348707
 C        -5.4654480592        5.9422046480       -4.0366995412
 C       -12.8792449500        4.5472637557       -6.1311620524
 C       -13.0196005469        6.6047575673       -7.7112666043
 H       -13.0020812823        8.5830064587       -4.1285543235
 H       -14.0232262309        8.7606729441       -5.4805248942
 H       -12.3523924410        8.8986794084       -5.7778269853
 H        -9.7226548455        4.5511487919       -6.1841941172
 H       -10.7760133775        4.9662445060       -4.6705427148
 H        -9.4899959791        6.7510305861       -4.0703445987
 H        -8.3994567383        6.7012171525       -5.4800206694
 H        -4.4658677090        3.5593176443       -2.8610554678
 H        -4.3090436646        3.2082347177       -4.6326399171
 H        -3.6898949960        1.1408255038       -3.5833798863
 H        -5.4158052349        0.9031024219       -3.7437157333
 H        -6.8679490244        2.5724563077       -0.2708561039
 H        -7.9910813036        1.2901332400        0.7101700394
 H        -9.3443539458        1.3445036871       -1.3693861581
 H        -8.6033901458        2.8901102337       -1.7100346236
 H       -12.6940074599        1.2309229547        0.1831686203
 H       -13.6341906617        2.6273240589       -0.5839505567
 H       -14.7266418263        1.2434266815        1.4519407116
 H       -14.7195348277        2.9154462379        1.7077168751
 H       -11.5496229667        1.0573390730        6.1102099256
 H       -12.9046107272        1.4501037056        7.0883370663
 H       -10.7978195135        2.3299384252        8.0566926034
 H       -11.7450748592        3.8165839297        7.3202542433
 H       -10.3740250904        6.8880269812        6.6919497636
 H       -10.2950190755        7.4829457057        5.0284413489
 H        -8.8721899261        7.3511703943        6.0058303818
 H       -10.3594819623        5.0651157565        8.1624814055
 H        -8.7896573484        5.9187809271        7.9226708034
 H        -8.9888377204        4.2332036099        8.6422742560
 H        -7.5458727694        3.5377725367        5.0938842300
 H        -7.1342428608        3.5895208256        6.8108764078
 H        -6.9957581372        5.0460509487        5.9683000595
 H       -15.8421313378        1.9874683119        3.7053456218
 H       -15.0303916314        3.5800587670        4.0106867412
 H       -15.7037085283        2.4886268119        5.3338168705
 H       -13.2170337616       -0.1848140028        5.0275500179
 H       -14.9377332866        0.0168018914        4.4940097385
 H       -14.3677016484        0.6236811316        5.9967692406
 H        -9.7411903485        5.2144185326       -1.0236820516
 H       -10.7460630076        5.5360789662        0.5140676763
 H       -11.5248666990        5.5420362924       -1.0584679355
 H       -12.4291676370        3.3831087891       -2.2110821253
 H       -11.3631181996        1.9978065925       -1.8886495740
 H       -10.6262375389        3.5062972497       -2.5396590211
 H        -3.9347110024       -1.2091249664       -1.8462081740
 H        -5.4608371848       -0.8943662450       -2.6226707965
 H        -5.3754582298       -1.9268447581       -1.1467415181
 H        -3.7931436649        0.0754692353        0.6554872507
 H        -5.1979834544       -0.7036385133        0.9972572842
 H        -5.1756680333        1.0761270579        1.3193090417
 H        -5.5220274547        4.2150724898       -6.2340594609
 H        -6.5060317539        5.6631682282       -6.5672091062
 H        -7.2149298649        4.0046742387       -6.4867119001
 H        -5.7162261156        6.9682755203       -4.4255068482
 H        -4.4725161261        5.5751821696       -4.4045737331
 H        -5.4160440605        5.9455770714       -2.9486006717
 H       -12.7599417687        4.1498400607       -5.1685167409
 H       -12.3673283204        3.9418280332       -6.8995858209
 H       -13.9234573617        4.5433918790       -6.3996505646
 H       -12.7413642332        5.9156548586       -8.5209714993
 H       -12.6398125239        7.6728865374       -7.8878959751
 H       -14.1044030142        6.6762570397       -7.7884359206
 Na      -10.6508490431        3.2523070407        3.2889897942
