117

 C       -13.2711491206        8.3278258937       -5.2774830049
 C       -12.9586172992        6.8328304920       -4.9432748963
 O       -13.0001000830        6.4267459315       -3.7859427627
 C       -12.4861776257        5.9517421732       -6.1519024583
 C       -10.9046071073        6.1987653186       -6.2599606859
 O       -10.4171510910        7.2023437045       -6.7930809637
 C        -9.9770100034        5.3327890753       -5.4013758919
 C        -8.7674361479        6.1761983926       -4.9608634270
 C        -7.9598480478        5.2651284525       -4.0123381815
 O        -8.4338028002        4.8613834900       -2.9771093587
 C        -6.5415349308        4.8274000845       -4.4565049306
 C        -6.0805809677        3.3983826168       -4.0179850257
 O        -6.8867388706        2.5756456663       -3.6786106036
 C        -4.5360762687        3.0831444057       -3.9762256191
 C        -4.3975350391        1.7121165848       -3.2702755654
 C        -4.7068756808        1.7162240249       -1.7530270613
 O        -4.4068684761        2.6226515278       -0.9912856753
 C        -5.3968960800        0.4040064385       -1.0486617962
 C        -6.9575930491        0.6519197887       -1.2135649225
 O        -7.5625340151        0.0321727714       -2.0525640971
 C        -7.6078395043        1.7411584588       -0.3519577981
 C        -8.8268942010        2.4330803494       -1.0196893723
 C        -9.7253082348        2.9816355818        0.0807562376
 O        -9.4327631700        2.9888106030        1.2363149608
 C       -11.0834742374        3.6854857204       -0.3615706523
 C       -12.1725905609        3.2640330528        0.6298495506
 O       -12.2427822514        3.8254961952        1.7134873329
 C       -13.2242851331        2.1907100995        0.3333149058
 C       -14.0191864422        1.8737099887        1.6117880897
 C       -13.1588595140        1.6289624772        2.8138048529
 O       -12.0459129275        1.0875668823        2.7888072604
 C       -13.9052071438        1.6517093959        4.2143430076
 C       -12.9124771099        2.5139191315        5.1212229841
 O       -12.4972791909        3.5911689476        4.6602096524
 C       -12.4466910468        2.0317899374        6.4360966812
 C       -11.3335036628        2.9195666514        7.1009709244
 C       -10.0191241540        3.0826793249        6.3442646322
 O        -9.8012076712        2.3082712290        5.4179068062
 C        -9.0781089038        4.3157667057        6.5448952815
 C        -9.5772090490        5.4175951219        5.5128034333
 O       -10.1143148986        5.1428507671        4.4686179598
 C        -9.1257799659        6.9278192564        5.7978210688
 C        -9.1869109451        4.9858354981        8.0065551326
 C        -7.6382861490        3.9351080675        6.1868420424
 C       -15.2238040623        2.5564260611        4.2534654831
 C       -14.0962201154        0.1947003008        4.6319762792
 C       -10.7962321232        5.2098568976       -0.2315710904
 C       -11.4899565547        3.4139476779       -1.8305288938
 C        -4.9336220657       -0.8548482620       -1.8966870160
 C        -4.9439721829        0.2784458244        0.3561434552
 C        -6.4594606423        4.8710387101       -5.9551716767
 C        -5.6355432017        5.9970696315       -3.8163684236
 C       -12.8809874702        4.4359753904       -5.9034627342
 C       -13.1354818358        6.4597791324       -7.5687360917
 H       -13.6387762862        8.9290938642       -4.4869705229
 H       -13.9899351768        8.4488929555       -6.1205468661
 H       -12.3869607096        8.7307349471       -5.7381057868
 H        -9.4635184645        4.5429169601       -5.9652770480
 H       -10.3341961388        4.8990407876       -4.4727606424
 H        -9.1819167689        6.9640607146       -4.2448449638
 H        -8.3364677128        6.7817262754       -5.7428350918
 H        -4.0660274055        3.8876375836       -3.4282144094
 H        -4.0746185315        2.8860405694       -4.9723068862
 H        -3.4714474916        1.1868755133       -3.4933008766
 H        -5.0934279862        0.9915576282       -3.8249811476
 H        -6.9656499336        2.4697476665        0.0002874303
 H        -8.0435504499        1.2540614773        0.5110085728
 H        -9.3413965982        1.7144601136       -1.7049589412
 H        -8.4291006881        3.2378226135       -1.6047809291
 H       -12.6370296429        1.3008106876        0.1067936493
 H       -13.9251430312        2.3667640172       -0.4377331870
 H       -14.6279125313        0.9760264180        1.3652007257
 H       -14.7264221963        2.7442880559        1.7078513488
 H       -12.2966846653        0.9773139158        6.3390302337
 H       -13.3241155692        2.1278988829        7.0716661864
 H       -11.1249802297        2.3965759732        8.0114618217
 H       -11.8786778554        3.8374886188        7.2102873036
 H       -10.0852717816        7.3002320735        6.3143912643
 H        -9.0698901821        7.5485230361        4.8347981275
 H        -8.2749975943        7.0537704002        6.4540021444
 H        -9.9920333920        5.6087592596        8.2971557657
 H        -8.3057915103        5.6066505514        8.0671730600
 H        -9.2933308872        4.2773670905        8.8585641922
 H        -7.5762585489        3.7030569944        5.1017596517
 H        -7.3333427526        3.0814003766        6.7190310251
 H        -6.9616070058        4.8263023370        6.4748733143
 H       -16.0590249192        2.0850435358        3.7640986835
 H       -14.9695452708        3.5363227535        3.7326365246
 H       -15.4419110091        2.7698824943        5.2648894588
 H       -13.1315181739       -0.3238773883        4.5721271297
 H       -14.8329834752       -0.3414911519        4.0534583402
 H       -14.4087506887        0.2363598560        5.7234855577
 H       -10.0796291875        5.4368044414       -1.0016633974
 H       -10.4040262372        5.3806531528        0.7679946839
 H       -11.6495355011        5.8408484379       -0.3586827643
 H       -12.2201385568        4.1354262021       -2.1455713419
 H       -11.9366953951        2.4545116366       -1.9499080144
 H       -10.6920099323        3.6021399479       -2.5091177578
 H        -3.9099920248       -0.8100295305       -2.2143706657
 H        -5.6039071345       -0.9189152045       -2.7646503142
 H        -4.9993850964       -1.8121224522       -1.3379476559
 H        -3.9534604333        0.0754734345        0.4774349793
 H        -5.3683263197       -0.5489012808        0.7779343201
 H        -5.2000346754        1.1075301739        0.9903356946
 H        -5.4082608401        4.7103014760       -6.1925124634
 H        -6.7721933394        5.7962096197       -6.4068097084
 H        -7.1271329264        4.0734065437       -6.3832298211
 H        -6.0414612840        6.9531558159       -4.1442843139
 H        -4.6165992299        5.8592073059       -4.1328260718
 H        -5.6733697267        5.9268493446       -2.7792923368
 H       -12.7693027079        4.2046812662       -4.8357502870
 H       -12.2203017302        3.6557345711       -6.4171120987
 H       -13.9392916694        4.4640455446       -6.1033437586
 H       -13.0101093770        5.5963624479       -8.3037771601
 H       -12.5379231470        7.2178278953       -8.0854693564
 H       -14.1385339117        6.7599005339       -7.4638097262
 Na      -10.4915074319        3.0972060794        3.1931976827
