117

 C       -12.8888218667        8.3280484869       -4.9775724168
 C       -12.7894040127        6.8106572185       -5.0656144409
 O       -13.0046419585        6.0497914007       -4.1300655553
 C       -12.4022991073        6.2690165535       -6.4721321471
 C       -10.8589430294        6.3287205632       -6.4664677796
 O       -10.2239268982        7.0462516951       -7.2316008458
 C       -10.0422794446        5.4342161859       -5.3285466199
 C        -8.8581822299        6.3126324070       -4.7584896923
 C        -7.9423103184        5.3761233489       -3.9054918545
 O        -8.1175827633        5.3274682238       -2.7056847027
 C        -6.6976151748        4.6691285899       -4.4848294919
 C        -6.4478099379        3.2603012543       -3.9350942541
 O        -7.4584983093        2.5967797945       -3.8044204281
 C        -4.9371988985        2.7469349324       -3.7650087716
 C        -4.7151393184        1.3181702756       -3.1348470166
 C        -4.8130407412        1.4329386399       -1.6380106757
 O        -4.3948863477        2.3775667690       -1.0187296552
 C        -5.3423059878        0.1860017203       -0.8258736786
 C        -6.9214826178        0.1962611890       -0.7964285661
 O        -7.5905753866       -0.6148430439       -1.3395132235
 C        -7.5998420855        1.3895985026       -0.0649570934
 C        -8.8739782969        1.8885194049       -0.7819985363
 C        -9.7984500834        2.5765676403        0.1601065381
 O        -9.5148069510        2.6310916622        1.3210768909
 C       -11.0307913410        3.3659393494       -0.4351571181
 C       -12.1618946475        3.4067107736        0.6199160069
 O       -12.1378748659        4.2945297660        1.4402480744
 C       -13.2183935472        2.3403550964        0.5967436213
 C       -14.1397177045        2.3263965523        1.8667231475
 C       -13.2884612605        1.8970303232        3.0531763407
 O       -12.1267821186        1.4693886802        2.9090545915
 C       -13.8933183859        1.9116244010        4.5232560914
 C       -12.6970986086        2.6462699696        5.4348151259
 O       -12.4605718414        3.8441530905        5.2089393054
 C       -11.9252655194        1.9185507462        6.5464839166
 C       -10.7987964972        2.8406028293        7.1325244337
 C        -9.8614272204        3.3309984975        5.9773633530
 O        -9.7552137805        2.6423509496        4.9865385298
 C        -9.0268589594        4.6066143163        6.1862169620
 C        -9.6374445086        5.6228351333        5.1469563867
 O        -9.4820074250        5.3810906000        3.9683141529
 C       -10.4338353833        6.9276001715        5.5970259496
 C        -9.0995557496        5.1878809097        7.6865866049
 C        -7.5763049525        4.2920650053        5.8458604107
 C       -15.2902872806        2.7995599420        4.6320352146
 C       -14.2894507649        0.4625387966        4.9081898123
 C       -10.4462756925        4.7776613028       -0.6988108565
 C       -11.5112871616        2.7411702421       -1.7484088501
 C        -4.9312740065       -1.2096985723       -1.5279537415
 C        -4.8891698931        0.1029364667        0.5909557872
 C        -6.7556550770        4.4319506199       -5.9767504847
 C        -5.4640601379        5.6158312943       -4.2757373885
 C       -12.7472595374        4.7834651950       -6.5572625191
 C       -12.8967700955        6.9119869252       -7.8051744920
 H       -13.1084662805        8.6330016449       -3.9381763868
 H       -13.8108890888        8.7612046498       -5.5147734126
 H       -12.0681772041        8.9539991495       -5.3421079401
 H        -9.5588547376        4.5813331967       -5.8175167719
 H       -10.7862040839        5.2363085301       -4.5526596834
 H        -9.2910783441        7.0484857746       -4.0733886868
 H        -8.3797495070        6.7418332309       -5.6154250850
 H        -4.4684771046        3.5182147888       -3.1479613234
 H        -4.5227926564        2.7246266307       -4.8241337857
 H        -3.7211426395        0.9467334073       -3.3301375039
 H        -5.4946130522        0.6482564914       -3.5291357270
 H        -6.9633536845        2.2991998554       -0.0382371278
 H        -7.8965305859        0.9904222552        1.0247313350
 H        -9.3025392966        1.0607128089       -1.3907286984
 H        -8.5940306425        2.5602648997       -1.5785401492
 H       -12.5921678009        1.4010611901        0.5567758102
 H       -13.7610674956        2.3172310256       -0.3591256900
 H       -14.9627139872        1.7143001032        1.7080487128
 H       -14.6334924476        3.2807467757        1.9462848499
 H       -11.5699280560        0.8983988979        6.2651199881
 H       -12.5960266999        1.6622429514        7.4072035245
 H       -10.1170637308        2.2461572492        7.7983755188
 H       -11.3564468999        3.6682643834        7.6734541201
 H       -11.4264585853        6.6394689374        5.9557586472
 H       -10.5083874235        7.6609375427        4.7755958838
 H        -9.8931726122        7.2495883969        6.4052849783
 H       -10.0716467311        5.6138343302        7.9117599197
 H        -8.3431253798        5.9593520794        7.7759797113
 H        -8.6802143671        4.4472637820        8.4454317005
 H        -7.4499575739        4.1998218625        4.7788221999
 H        -7.3795178925        3.4349000804        6.3763894929
 H        -6.9118800775        5.1068294772        6.2701592295
 H       -15.9353026277        2.4932120735        3.7903649966
 H       -14.9535054071        3.9074141521        4.6096627451
 H       -15.7976414581        2.5352024781        5.5553805061
 H       -13.4157150766       -0.1248321442        5.1124231291
 H       -14.8360692226        0.0348579188        4.0816516107
 H       -14.9415944728        0.4430717751        5.7999066293
 H        -9.6844762166        4.7716732475       -1.4457372560
 H       -10.0444107009        5.1613853729        0.2298523308
 H       -11.2602751144        5.3954051377       -0.9856049839
 H       -12.4769824094        3.1679237668       -2.0367789387
 H       -11.5886140675        1.6770117877       -1.6358942141
 H       -10.7428820231        2.8226649929       -2.5052701100
 H        -3.8511245216       -1.3412642596       -1.6015679650
 H        -5.2949276811       -1.1866185356       -2.5625812644
 H        -5.4587773348       -2.0365451032       -1.0397978053
 H        -3.7989864826       -0.3157719869        0.7041873731
 H        -5.7214651703       -0.5026576857        1.1473620637
 H        -4.8831963183        1.0274096182        1.1843105267
 H        -5.8047683356        4.0954341843       -6.3537244303
 H        -6.9791943942        5.3761467666       -6.4311108817
 H        -7.4585516354        3.5996230589       -6.2053866308
 H        -5.7043985527        6.6225024885       -4.7049107447
 H        -4.5824816002        5.2829407366       -4.8695156883
 H        -5.2154431322        5.7671630049       -3.2460403611
 H       -12.2567379169        4.2190236480       -5.8340458634
 H       -12.5758895154        4.4745801016       -7.5985920242
 H       -13.7672665352        4.6005980569       -6.3996959020
 H       -12.2939001613        6.5632679577       -8.7201931813
 H       -12.9462340510        7.9927372223       -7.6758685730
 H       -13.8523497614        6.6140289735       -8.1136635060
 Na      -10.6599530473        3.7888701347        3.0451595313
