117

 C       -13.6020917694        4.5070196534       -1.8003647541
 C       -12.9936915992        3.2627991952       -1.0401676099
 O       -12.1098630890        2.7101093619       -1.7090785778
 C       -13.3760049409        3.0509301053        0.4113003921
 C       -12.5109461001        2.0137300785        1.1903034635
 O       -11.9335067276        1.1644281315        0.4966898649
 C       -12.2108716586        1.9271874754        2.6722696205
 C       -10.8185338894        1.3917880649        3.0712946741
 C       -10.7160270730       -0.1746860348        2.3588798452
 O       -11.5876851608       -0.9789739579        2.4567354877
 C        -9.2394451940       -0.5879267771        1.8233267714
 C        -9.3437464036       -0.9291421433        0.3047332874
 O        -8.5734588502       -0.3211204758       -0.4374568740
 C        -9.9656505856       -2.1492622274       -0.2197398128
 C        -9.2283391381       -2.5816363035       -1.5085484257
 C       -10.1349217915       -2.1415239185       -2.7815655794
 O       -11.2778340932       -1.7220082722       -2.5851159116
 C        -9.3801830914       -2.3571224514       -4.1268344317
 C        -7.9068915511       -1.8138501195       -4.2093210176
 O        -6.9512808706       -2.4196872931       -3.7902514437
 C        -7.6880746932       -0.4516249375       -4.8937975123
 C        -7.0476047122        0.6958800440       -3.9800176939
 C        -8.0285737114        1.8362118074       -3.4553744055
 O        -9.1977406113        1.6235832908       -3.2816396577
 C        -7.5096095342        3.4065117778       -3.2749685580
 C        -7.6979983253        3.4360909526       -1.5905240929
 O        -8.3935753412        2.6450157714       -0.9250254285
 C        -7.2101666565        4.6876304323       -0.8894354159
 C        -7.5030017627        4.7788232647        0.5653761843
 C        -6.4965843422        5.8315998465        1.1710342944
 O        -5.3339867239        5.7127872870        1.4237339830
 C        -7.1335229453        7.2544404018        1.6667420045
 C        -8.4711340543        7.7141785609        1.0329695146
 O        -9.0749415470        7.0988792368        0.1583826663
 C        -8.9824084428        9.0790528491        1.6993551449
 C       -10.4982443031        9.5275894660        1.4717300306
 C       -10.8926417028       10.6233948574        2.5261995278
 O       -10.4139218236       10.7129451615        3.6475699544
 C       -12.0671275860       11.6729621194        2.1702388132
 C       -13.4781555236       10.9481260156        2.2966286865
 O       -13.4776153555        9.7502848271        2.3334316284
 C       -14.6175335260       11.9323406022        2.2218357468
 C       -11.9405851921       12.8267989506        3.1920661219
 C       -11.7524693467       12.3286911259        0.7985710395
 C        -7.5749386088        6.8077732168        3.0566741005
 C        -6.0071432123        8.2788859347        1.6363630828
 C        -6.1338557551        3.8099598772       -3.8816543477
 C        -8.7205923323        4.2370028908       -3.9629044364
 C        -9.3127846925       -3.9641691907       -4.0371119664
 C       -10.3164898928       -1.8988752442       -5.2541517560
 C        -8.0972156765        0.4902220159        1.8816871190
 C        -8.8753085463       -1.9401126507        2.5768071977
 C       -13.3344694223        4.4342984238        1.1465354130
 C       -14.8081636088        2.6262071242        0.4357951419
 H       -14.6541640104        4.2687261296       -2.0400993238
 H       -13.0614586208        4.7103959116       -2.7699464688
 H       -13.4876548714        5.4093520648       -1.1904962097
 H       -12.9268684336        1.1694771245        3.0402289682
 H       -12.3814304932        2.9218446560        3.1557797463
 H       -10.8263135240        1.2605851303        4.1562888445
 H       -10.0785762038        2.0822576024        2.6362782934
 H       -10.9829311768       -1.8502953983       -0.4482422439
 H       -10.0657659911       -2.9762781862        0.3903044081
 H        -9.0431881565       -3.6309364667       -1.4252332562
 H        -8.2651233754       -2.1482559992       -1.6786338525
 H        -8.6990429866        0.0764279992       -5.0636357805
 H        -7.2088764069       -0.6878373005       -5.8238623884
 H        -6.3462965329        1.2741702566       -4.5500310706
 H        -6.5541794740        0.1959896085       -3.1234935982
 H        -7.3375863106        5.5829072528       -1.5172866858
 H        -6.0543793573        4.7473615384       -1.0253732425
 H        -7.3983889187        3.7929181736        1.0109379219
 H        -8.5355197048        5.1064720014        0.7066976454
 H        -8.4270887869        9.9561104799        1.3344574625
 H        -8.8561156936        9.0402368099        2.7805656213
 H       -11.3403494516        8.8619219228        1.5006937977
 H       -10.6113347802        9.9818078101        0.4602893989
 H       -15.4988733244       11.4844586714        1.6114255150
 H       -14.2505203682       12.7400201246        1.7137354422
 H       -15.1164754056       12.1826353121        3.1977407102
 H       -12.7288507976       13.6272338881        2.9890527327
 H       -10.8795497513       13.2309223320        2.9075723522
 H       -11.8384401841       12.4143696756        4.2074225982
 H       -11.4057160701       13.3159472639        0.9349395499
 H       -12.5868524553       12.4251122318        0.1543325307
 H       -11.0144487396       11.7768388914        0.2126609875
 H        -7.8982243405        7.6912075913        3.6916422034
 H        -6.6191392496        6.4587951841        3.5839708978
 H        -8.3327421770        6.0767156697        2.9793342787
 H        -6.3176745577        9.2562735494        1.8924064213
 H        -5.4281970779        8.1758655902        0.7405831095
 H        -5.4509042243        7.9318890226        2.4420281837
 H        -5.2376978630        3.4130517044       -3.4324121880
 H        -6.0822979389        4.8497459603       -3.7826665815
 H        -6.1762862310        3.7146331534       -4.9772524708
 H        -8.5074467029        5.3067094433       -4.0836194237
 H        -9.6520128170        4.0804922508       -3.5204514106
 H        -8.8231657175        3.8329169861       -4.9669801782
 H        -8.4725607955       -4.3955168858       -3.5905755375
 H        -9.3071691693       -4.3559679143       -5.0904644049
 H       -10.1990160663       -4.3794320378       -3.6303983938
 H        -9.8328239068       -1.6855458950       -6.1966627360
 H       -10.9190117176       -0.9494497423       -5.0834069693
 H       -10.9501609669       -2.7335155763       -5.5633555491
 H        -8.3997641190        1.5004290631        1.4852858775
 H        -7.2990911396        0.0623283209        1.2721929882
 H        -7.7100506190        0.7299200746        2.9483280780
 H        -8.5921722268       -1.5470473186        3.5508846004
 H        -8.1055223137       -2.4904043174        2.0868018876
 H        -9.8804300761       -2.3805679568        2.8424362338
 H       -12.3090527534        4.5491477802        1.5204274256
 H       -14.0713588742        4.3476109690        1.9698940928
 H       -13.7287983740        5.1804351092        0.5106842767
 H       -15.3514729943        2.9365374761        1.3291128129
 H       -14.9506611939        1.5530800324        0.2756350211
 H       -15.5223667987        3.0730218393       -0.3231661540
 Na      -10.2079186740        0.9317889017       -1.5216745190
