117

 C       -12.9389735655        8.2630659563       -4.8685216627
 C       -12.7905599675        6.8040289922       -5.1243284094
 O       -13.1160738599        5.9317562995       -4.3182613294
 C       -12.2828971277        6.2353396484       -6.4675617844
 C       -10.6290886324        6.2865724623       -6.5094353673
 O       -10.0263771704        6.9555367795       -7.3000792937
 C        -9.9673368630        5.5602372338       -5.2547595223
 C        -8.6819812088        6.3276745320       -4.8206174908
 C        -7.8244392361        5.3841977946       -4.0240968556
 O        -7.9039047112        5.2558470070       -2.8275581763
 C        -6.6825200830        4.5784181623       -4.6283398171
 C        -6.5638033452        3.2088936331       -3.8249356947
 O        -7.5510090016        2.5856281567       -3.5087335610
 C        -5.1157769947        2.7588966567       -3.6350539257
 C        -5.2029243671        1.3508367324       -3.1045676691
 C        -4.9433096404        1.3107695910       -1.5761085642
 O        -4.4023053394        2.2515756933       -1.0095126084
 C        -5.3093636720        0.0271048063       -0.8242684503
 C        -6.9052573097        0.0087359092       -0.6767280586
 O        -7.5619596215       -0.8802521410       -1.2161767213
 C        -7.6216044019        1.1967127497       -0.0087110348
 C        -8.9316757984        1.7060844676       -0.7422785705
 C        -9.7983855022        2.5607697818        0.1698906614
 O        -9.5078812882        2.6481206277        1.3664550010
 C       -11.0216564762        3.3519238836       -0.4509529672
 C       -12.1989146025        3.4099487232        0.5471602653
 O       -12.2314816211        4.3270403248        1.3666130168
 C       -13.4018910724        2.3965414843        0.6263567102
 C       -14.1350318567        2.4959987716        2.0107033207
 C       -13.2102459307        2.0112938571        3.1718361941
 O       -12.0871200775        1.6348495103        3.0201917627
 C       -13.8932024298        2.0352077634        4.6610842136
 C       -12.7048588620        2.7487443732        5.4022359814
 O       -12.3658715849        3.8708732605        5.1367125966
 C       -11.9186880652        1.9342157812        6.4172711813
 C       -10.7854246297        2.7339751154        7.0475705533
 C        -9.9845497573        3.3774363394        5.9574509905
 O        -9.8191473423        2.7749365127        4.8972326300
 C        -9.0774509171        4.6520860379        6.1212929814
 C        -9.7723239423        5.7921681830        5.0807316466
 O        -9.4699738173        5.6513476695        3.9090780011
 C       -10.6234442057        6.8659387228        5.6853280917
 C        -9.1680044646        5.1442012295        7.5916090868
 C        -7.5137280428        4.4290887858        5.6862089137
 C       -15.1320877408        2.9979823141        4.7708497905
 C       -14.0632058985        0.5789704227        5.2735975874
 C       -10.5830661223        4.7638471904       -0.7901083252
 C       -11.4771443072        2.6484480159       -1.7602775568
 C        -4.8312742313       -1.2047844501       -1.5860519289
 C        -4.6929372990        0.1695902695        0.6162186686
 C        -6.8638903532        4.3364901123       -6.1381640951
 C        -5.4518470859        5.4678314396       -4.4069458977
 C       -12.7277373023        4.7532758836       -6.7366104936
 C       -12.7730724545        7.1661151642       -7.5919997898
 H       -13.5349295720        8.5724268580       -4.0710782594
 H       -13.3232171007        8.7606511584       -5.7121220738
 H       -11.9514317066        8.7254990026       -4.6759922876
 H        -9.5823097305        4.6122835233       -5.6312160420
 H       -10.7303042287        5.4549970022       -4.4826377178
 H        -8.9079741564        7.1532473070       -4.1445083866
 H        -8.0760575297        6.6153384491       -5.7415637446
 H        -4.6822610978        3.4542496808       -2.9114395152
 H        -4.5615691114        2.7876327285       -4.5305326658
 H        -4.3725599232        0.7784446881       -3.5850340587
 H        -6.2056844206        0.9952453361       -3.3611871050
 H        -6.9303101609        2.0518205518       -0.0705742670
 H        -7.8374412444        1.0227974863        0.9827167502
 H        -9.4124410950        0.8838288709       -1.2452649918
 H        -8.6917955357        2.3299346272       -1.6385866843
 H       -13.1538006682        1.3703587905        0.3901287364
 H       -14.1200142002        2.6599847524       -0.1875981616
 H       -15.0629523972        1.8754999789        1.7980164802
 H       -14.6586550926        3.4990352567        2.1235146721
 H       -11.5247783759        1.0146363873        6.0269705823
 H       -12.4898893979        1.5654018877        7.2533139815
 H       -10.0874663531        2.1375018712        7.6351470215
 H       -11.2259214140        3.4763315778        7.6796315925
 H       -11.5628983918        6.3890269239        5.9288383391
 H       -10.7303819956        7.5850516720        4.8777401494
 H       -10.1839213404        7.2655223176        6.6226986583
 H       -10.2258590901        5.2304654268        7.9043081524
 H        -8.7372722879        6.1314178319        7.7516507921
 H        -8.4843829160        4.5403603309        8.0991581761
 H        -7.5982222721        4.3859072655        4.6070262649
 H        -7.0897376069        3.4578708509        6.0991722689
 H        -6.9652156393        5.2969808364        5.9200638408
 H       -15.9802024978        2.5793480478        4.2564185820
 H       -14.8478944551        3.9344158288        4.4621864494
 H       -15.2697935550        3.0178400601        5.8658861797
 H       -13.1586233660       -0.0210621653        5.0883582659
 H       -14.9497027171       -0.0091262279        4.9523448094
 H       -14.1708612003        0.7382310922        6.3105768675
 H        -9.6084570438        4.7704591387       -1.3321028375
 H       -10.4413126245        5.3058675923        0.1527698606
 H       -11.4039020557        5.2552474938       -1.4221327328
 H       -12.3466970599        3.2226393520       -2.1037962509
 H       -11.7089695280        1.5735221417       -1.5959726032
 H       -10.6936942324        2.6443953391       -2.5381191538
 H        -3.8716593450       -0.9675101922       -2.0689296284
 H        -5.5408815622       -1.5550910265       -2.3250123855
 H        -4.7484336615       -1.9854739234       -0.8563844063
 H        -3.7696689463        0.5344847394        0.5999090239
 H        -4.7969973454       -0.6310146309        1.2261806022
 H        -5.2954825528        0.9587637152        1.1158256546
 H        -6.0021261672        3.7474263454       -6.4963591790
 H        -6.7979213022        5.2722064974       -6.7184316853
 H        -7.7425475971        3.7581860873       -6.2995947976
 H        -5.4456347232        6.3990250057       -4.9643603985
 H        -4.5854278862        4.9173208849       -4.7774731885
 H        -5.3428294084        5.7309748549       -3.3051860569
 H       -12.7602372907        4.3338993751       -5.7108475539
 H       -12.1593666858        4.1621073704       -7.3930353607
 H       -13.7912537740        4.6624305056       -7.0771931659
 H       -12.8106440169        6.6689058762       -8.4847180767
 H       -12.1592314607        8.0805285129       -7.6900467300
 H       -13.8547233017        7.5327665836       -7.5001029830
 Na      -10.6643575166        3.7230916632        2.9626205343
