117

 C       -12.8706652090        8.1464111463       -4.7231299847
 C       -12.8791551528        6.6954541101       -5.1795117570
 O       -13.1214067904        5.6997616065       -4.4914531805
 C       -12.1831849626        6.3970689276       -6.6666083148
 C       -10.6058495579        6.4952381141       -6.4560637288
 O        -9.8779332934        6.9397624857       -7.3418879280
 C        -9.9437982565        5.7765501540       -5.2722749231
 C        -8.5818672350        6.4221743098       -4.9509870799
 C        -7.6800546135        5.5430392986       -3.9917565998
 O        -7.8181516024        5.5862775998       -2.7949801462
 C        -6.6416067013        4.5686672665       -4.7218991975
 C        -6.6215368119        3.1430137055       -3.8543688821
 O        -7.6540214738        2.7493547957       -3.3744326289
 C        -5.3920357678        2.3225419986       -3.8332728301
 C        -5.4560953872        1.0105482317       -3.0257264800
 C        -5.0532665374        1.1316637239       -1.4802760219
 O        -4.5749117509        2.1075019728       -0.9670464662
 C        -5.4388026316       -0.0865462112       -0.6358973018
 C        -7.0201853125       -0.1418993505       -0.5814327727
 O        -7.6251161187       -1.0839474235       -1.0064226162
 C        -7.6787587357        1.0144360633        0.1038094328
 C        -8.9980975940        1.3613011439       -0.5700533011
 C        -9.7879851586        2.3911736354        0.2752864286
 O        -9.4094446029        2.7558717094        1.3705661816
 C       -11.0536789939        3.0228812011       -0.4860473130
 C       -12.1313649572        3.3385413042        0.5873275000
 O       -12.0374975580        4.2213734046        1.4075307816
 C       -13.3729134981        2.3949144878        0.6138751264
 C       -14.1766564526        2.5955188239        1.9203972897
 C       -13.2455534609        2.1682159663        3.1417134648
 O       -12.1203438948        1.7295726061        2.9694460896
 C       -13.7729392886        2.2713273460        4.5715440457
 C       -12.5316384091        2.8754610776        5.5075262107
 O       -12.2212052937        4.0233882364        5.3244775752
 C       -11.7543987231        2.0251479362        6.5341947164
 C       -10.5927640033        2.8267662958        7.1070375066
 C        -9.7282123573        3.4085554141        5.9617913278
 O        -9.5057479071        2.7642635461        4.9576916731
 C        -9.0536076059        4.8860284987        6.0843340744
 C        -9.9644236324        5.8376770954        5.0996511649
 O       -10.0125894616        5.7782342279        3.8950460561
 C       -10.8459586545        6.9014339761        5.8504063613
 C        -8.8874223464        5.4615066358        7.4420658677
 C        -7.6658633887        4.9377560002        5.3735808808
 C       -14.9837917059        3.3071423097        4.7691024571
 C       -14.1641883021        0.8448632031        5.0294354566
 C       -10.4496061757        4.4207231638       -1.0155276066
 C       -11.6490428356        2.2089657597       -1.7192315982
 C        -4.9935656405       -1.4453441115       -1.1991316839
 C        -4.8328212145        0.0836465100        0.8027203788
 C        -7.1438168856        4.0168507537       -6.1448628351
 C        -5.2283920859        5.3132938510       -4.7887758852
 C       -12.7189341993        4.9419773620       -7.0102287907
 C       -12.6698740887        7.3245498005       -7.6822707440
 H       -13.3637520486        8.3682004129       -3.8528987842
 H       -13.2409764323        8.8740375282       -5.4604423045
 H       -11.8403988350        8.4511465400       -4.3878321348
 H        -9.9562311418        4.6955450906       -5.4543334763
 H       -10.6100976904        5.9260569727       -4.4177313301
 H        -8.7407313973        7.3609611125       -4.4550863415
 H        -7.9672568875        6.6743260471       -5.8783992366
 H        -4.5354625119        2.9195622083       -3.5323621618
 H        -5.1846063033        2.1236660609       -4.8651706629
 H        -4.7113297676        0.3392782595       -3.5020088552
 H        -6.4713369751        0.6634451012       -2.9738092917
 H        -7.0606561584        1.9141565536        0.2952323680
 H        -7.8466446758        0.7986959189        1.1318735939
 H        -9.6160618215        0.4895139261       -0.7427998087
 H        -8.8397385620        1.6896819292       -1.6263665662
 H       -13.0180452110        1.3619574705        0.5056388601
 H       -13.8840778581        2.5795405545       -0.3914013609
 H       -15.1180587659        2.0374299032        1.9067073907
 H       -14.5977470953        3.6892609775        1.8253317468
 H       -11.3052329306        1.1253649491        6.1210564347
 H       -12.3373013299        1.6426018789        7.3716687572
 H        -9.8712062353        2.3034157179        7.7361301266
 H       -10.9147358271        3.5783131098        7.8060568562
 H       -11.1753818099        6.2454107203        6.6035633751
 H       -11.6227865860        7.4651627198        5.3415896025
 H       -10.2035392999        7.5448037858        6.3076284457
 H        -9.9342759841        5.5249446586        7.8605467146
 H        -8.4765760303        6.4595602645        7.3962927233
 H        -8.2592024312        4.7525106561        7.9496846258
 H        -7.7961246072        4.4854155009        4.4357510912
 H        -6.9368267830        4.3506451799        5.9133735287
 H        -7.4478284587        6.0030145850        5.2886891883
 H       -15.5561610869        3.1630422615        3.8657962452
 H       -14.6230361118        4.3288597445        4.8626831057
 H       -15.5141239390        2.9927446152        5.7244706895
 H       -13.2782446147        0.2276226857        5.0882485081
 H       -14.7794157396        0.2649412032        4.3016250755
 H       -14.7132070947        0.9021522995        5.8990939879
 H        -9.8239409714        4.2271601972       -1.8611174767
 H        -9.8550097365        4.9288947392       -0.3135148870
 H       -11.3024867359        5.0568451557       -1.3880241317
 H       -12.5447342188        2.6917368394       -2.1286391205
 H       -11.8691581183        1.1922940258       -1.4263379711
 H       -10.9446588147        2.3366710049       -2.5461879345
 H        -3.9385780556       -1.5947690880       -0.8288581454
 H        -5.1534755018       -1.5914979011       -2.2688885604
 H        -5.5512038559       -2.1750484103       -0.6516524982
 H        -3.7813941392       -0.1530500787        0.7790972955
 H        -5.2805259405       -0.6629882706        1.4636683845
 H        -4.9434727683        1.1126830628        1.1759368525
 H        -6.3810808591        3.3843231791       -6.6002259782
 H        -7.3246352569        4.8347248953       -6.8652065831
 H        -8.0835844835        3.5470932817       -6.0127675342
 H        -5.2624704402        6.2763219114       -5.3102539560
 H        -4.4248666254        4.6845080088       -5.2077321072
 H        -4.8436269145        5.6241587090       -3.7676870437
 H       -12.2972849495        4.2052824565       -6.3895248202
 H       -12.5348832174        4.5680629406       -7.9760978941
 H       -13.7831414233        5.0082672269       -6.8410716428
 H       -11.8839129421        7.5287254018       -8.3473516308
 H       -12.7800701199        8.3747340769       -7.3211533014
 H       -13.6098877622        7.0400501065       -8.2087492906
 Na      -10.5448429613        3.8678533926        3.0067554865
