117

 C       -12.8453455944        7.9990429594       -4.5916930638
 C       -12.7428344276        6.6391283185       -5.2843994000
 O       -13.1983204694        5.6463480691       -4.7969804500
 C       -12.0151084716        6.3880468657       -6.6138601705
 C       -10.4900157748        6.6641259419       -6.4878287820
 O        -9.8407542435        7.4094343333       -7.1812666023
 C        -9.8315009965        5.8206387346       -5.3282468704
 C        -8.3505701186        6.3239026335       -5.2150173235
 C        -7.6431249371        5.4875709448       -4.1260698871
 O        -7.7314644557        5.6700350704       -2.9403585471
 C        -6.7159275084        4.2255642906       -4.6778656555
 C        -6.8780246676        2.9925066782       -3.7283751129
 O        -7.8668537464        2.7049920406       -3.0532196865
 C        -5.6838497795        1.9263275515       -3.8504266849
 C        -5.7070582413        0.7036976826       -2.9262702708
 C        -5.2079517413        0.8671518616       -1.4750150116
 O        -4.7442939261        1.9017451027       -1.0452201513
 C        -5.4442430365       -0.3233787305       -0.4816575946
 C        -7.0193425795       -0.4153655624       -0.4140792315
 O        -7.5838760419       -1.3491153527       -1.0117173438
 C        -7.8481418089        0.6907332576        0.3224264788
 C        -8.9938208540        1.1964601935       -0.5488603903
 C        -9.7856620803        2.2669194535        0.1273528137
 O        -9.4289160463        2.7307960670        1.2065410149
 C       -11.1302170804        2.9471844121       -0.6390971307
 C       -12.1575778216        3.3057828372        0.4635174747
 O       -11.9413945079        4.1952057690        1.2721711798
 C       -13.3647778877        2.4178813497        0.6554059075
 C       -14.1028582908        2.6421267021        2.0057701202
 C       -13.2032230092        2.3507993639        3.1167315452
 O       -12.1028380264        1.7777385569        2.8780668643
 C       -13.6986069698        2.5646324762        4.6242159713
 C       -12.4612976299        3.1978623133        5.4300013392
 O       -12.2533402908        4.4126456802        5.3933166554
 C       -11.5630015161        2.2783524765        6.3459413325
 C       -10.3824914218        3.1461070824        7.0303488660
 C        -9.4181268981        3.6644999378        5.9343543948
 O        -9.2225719449        2.9184537231        5.0221148424
 C        -9.0417457629        5.2202829270        5.9151352477
 C       -10.2406087411        6.0367794004        5.4253728358
 O       -10.6300080041        6.0143304038        4.2426230611
 C       -10.8921698072        7.1389917017        6.3109536884
 C        -8.6841500630        5.6722140259        7.4827904068
 C        -7.8874662262        5.4079897743        4.9354461783
 C       -14.9362923316        3.4777788544        4.7287102677
 C       -14.1747130464        1.1554936628        5.1639798983
 C       -10.5194123971        4.1604953222       -1.3758577317
 C       -11.7093004267        1.9750127642       -1.6670399497
 C        -4.9111274389       -1.6560147649       -1.0834092963
 C        -4.7316820610       -0.0655956261        0.8832123319
 C        -7.3422652132        3.6043765298       -5.9671736371
 C        -5.2905896777        4.7996490470       -4.9585884758
 C       -12.3110363344        5.0145393130       -7.2197353599
 C       -12.6127271838        7.4701023909       -7.6239949735
 H       -11.9239824795        8.0609943422       -3.9165748296
 H       -13.7246910120        8.1981124921       -3.9964254378
 H       -12.7323990739        8.8372162961       -5.1786410943
 H       -10.1024099949        4.8137861715       -5.4949354750
 H       -10.4364661782        6.0110983842       -4.4343687313
 H        -8.3315652368        7.4055958092       -4.9707925912
 H        -7.7933604041        6.2851514934       -6.1556933441
 H        -4.7540250266        2.4578681150       -3.7851621398
 H        -5.6054310999        1.6161299351       -4.8622488285
 H        -5.0259688608       -0.0797725408       -3.3650389752
 H        -6.7171651482        0.2989959502       -2.8303713367
 H        -7.2800583121        1.4702316472        0.6728572425
 H        -8.2157791250        0.2721092476        1.2630443829
 H        -9.6999719819        0.3668825240       -0.7467444106
 H        -8.6492015226        1.4438780733       -1.5842456202
 H       -12.9297491188        1.3639023309        0.7482909520
 H       -14.0756684259        2.4559757540       -0.1985030929
 H       -14.9579734645        1.8914896862        1.9320472971
 H       -14.5607842844        3.6578590325        2.0533079078
 H       -11.1467683854        1.4127265662        5.8396302111
 H       -12.0920427143        1.9463870096        7.2317867865
 H        -9.8314308701        2.6536288993        7.7998023540
 H       -10.7922507394        3.9650026328        7.6197221797
 H       -11.3136282173        6.6479049819        7.1308638704
 H       -11.6180559329        7.6856365885        5.8422905985
 H       -10.0836682442        7.8385762636        6.4788610510
 H        -9.5509969369        5.8020419871        8.0618345692
 H        -8.0155995683        6.4950783869        7.4299327054
 H        -8.2899614504        4.7867191989        8.0143963693
 H        -8.2216736332        5.1855067502        3.9162806066
 H        -7.0610816165        4.8135514988        5.2506557986
 H        -7.5672637120        6.4506928942        5.0243935704
 H       -15.8334394214        3.0221766255        4.2510767564
 H       -14.6294112985        4.5150155764        4.3753681509
 H       -15.2131063097        3.5056110634        5.7694277056
 H       -13.4228539649        0.4068607860        5.3339721375
 H       -14.8658539223        0.7422654284        4.4604510458
 H       -14.7612885428        1.2439326823        6.1142411993
 H        -9.7542962061        3.8010877079       -2.0487372674
 H       -10.0149661287        4.7910295713       -0.6285996323
 H       -11.1754924952        4.7610948519       -1.9003694402
 H       -12.7175147401        2.3041218725       -1.9646763162
 H       -11.8893357926        1.0296904920       -1.1646210842
 H       -11.0291525194        1.7812820406       -2.5024749807
 H        -4.0266227569       -1.5028492977       -1.7065618354
 H        -5.7457891925       -1.9213369535       -1.7566029078
 H        -4.7396166063       -2.4603462700       -0.3423549549
 H        -3.7062839442        0.0837151717        0.6337925311
 H        -4.7836035449       -0.9401862631        1.4763596180
 H        -5.1229019472        0.8411149349        1.3757391173
 H        -6.7436897186        2.7547325959       -6.2225747484
 H        -7.4255603956        4.3013631676       -6.7773404043
 H        -8.3702845767        3.2101712105       -5.7827196890
 H        -5.2406407418        5.6858217441       -5.6271394615
 H        -4.6664526860        4.0520888021       -5.5176554325
 H        -4.6715268743        4.9799670765       -4.1130808872
 H       -12.3329980277        4.2024969442       -6.5304224496
 H       -11.5547672579        4.7067020021       -7.9794443183
 H       -13.2510347180        5.0637921909       -7.6731276279
 H       -12.5576525561        7.1253979321       -8.7447369567
 H       -12.0151396961        8.3939460122       -7.5464821125
 H       -13.6219844019        7.7121310510       -7.3947330383
 Na      -10.4229723455        3.9225696297        3.0909912572
