117

 C       -12.8392790328        8.0321756093       -4.7653210313
 C       -12.7733958674        6.6181864271       -5.2141185333
 O       -13.1796850829        5.7364045937       -4.4962428227
 C       -12.2446835568        6.4307393115       -6.6487068203
 C       -10.5363643128        6.4820851556       -6.5461776431
 O        -9.9262946310        7.0356746645       -7.4108280185
 C        -9.9211990870        5.8859506237       -5.2408003161
 C        -8.4674267872        6.5003927250       -4.8888843393
 C        -7.7315398462        5.4752819605       -4.0471887427
 O        -7.6574949215        5.6766088789       -2.8339935250
 C        -6.7779833423        4.3762216933       -4.6772414133
 C        -6.6536461255        3.0741865747       -3.8769042614
 O        -7.6591699937        2.7637873385       -3.2572446784
 C        -5.2937432152        2.2759494566       -3.7533638325
 C        -5.4638494479        0.9564814539       -3.0155869991
 C        -5.1592095971        1.1254687830       -1.5338712669
 O        -4.5973902544        2.1062358772       -1.1132845513
 C        -5.5158570533       -0.1457604447       -0.5602634339
 C        -7.0762266298       -0.2107048141       -0.5123067288
 O        -7.7450135296       -1.0955493535       -0.9774116049
 C        -7.7237322619        0.9776854043        0.1945656323
 C        -9.0249979283        1.3184475510       -0.5154411199
 C        -9.7996402375        2.3357420707        0.2163130477
 O        -9.4210479046        2.6877532739        1.3137937836
 C       -10.9996601679        2.9767594630       -0.4803012976
 C       -12.1033346914        3.2666078717        0.5340521639
 O       -12.0106608951        4.1865888054        1.3042586843
 C       -13.4118614440        2.4620674475        0.5821275942
 C       -14.0167729312        2.5744611967        1.9596070951
 C       -13.1799617912        2.2666758018        3.1547898384
 O       -12.0304905395        1.8326192065        2.8769261356
 C       -13.7015463724        2.3038503114        4.6762910828
 C       -12.5183108521        2.9419713675        5.4623605040
 O       -12.1855505123        4.1389954565        5.2838584030
 C       -11.6568740683        2.1112011573        6.4424749384
 C       -10.5177993029        2.9630234807        7.0767133512
 C        -9.6307583984        3.5140890701        5.9488716311
 O        -9.4727628194        2.7799065067        5.0050116143
 C        -9.1235471534        4.9907308160        5.9846765301
 C       -10.1397480046        5.8483073364        5.2457442342
 O       -10.1079637857        5.8047067589        4.0100242736
 C       -10.9042553605        6.9399518746        5.9554336862
 C        -8.8512310662        5.4493009499        7.4646717285
 C        -7.7380402793        5.0019872047        5.2177615292
 C       -14.9330822136        3.2865049552        4.7438701632
 C       -14.2763615055        0.9331786641        5.0977831904
 C       -10.5280351688        4.3191260101       -1.0792251160
 C       -11.4633918511        2.1015456109       -1.6135582948
 C        -4.9634529058       -1.5271858361       -1.1894016865
 C        -4.9905172650        0.1811382935        0.8256374762
 C        -7.1126545697        3.9775349736       -6.0796990837
 C        -5.4043919018        5.0536727841       -4.7442045382
 C       -12.6592006071        4.9820925799       -7.0333657107
 C       -12.7347698529        7.4316576844       -7.7339276824
 H       -13.2079839738        7.9750455743       -3.7357604491
 H       -13.4695254976        8.7090627663       -5.3062533222
 H       -11.9506564580        8.5124085724       -4.5823894975
 H        -9.8275848992        4.8163334248       -5.4572545387
 H       -10.6911819502        5.8590653876       -4.4564096819
 H        -8.4089339528        7.4611628357       -4.3535664371
 H        -7.8938092004        6.6742725073       -5.8439808777
 H        -4.5647945885        2.9424431501       -3.3045621532
 H        -4.8819202249        2.1474281935       -4.7187732211
 H        -4.7937632705        0.1543952553       -3.4322082988
 H        -6.5252465637        0.7637166605       -2.9936243175
 H        -7.1264997263        1.7714169235        0.2328213393
 H        -7.8577044657        0.9285420088        1.2313402360
 H        -9.6620137080        0.4568403662       -0.7338139517
 H        -8.8511908548        1.6889966620       -1.5432773609
 H       -13.1661188175        1.4275276642        0.3312426368
 H       -14.0794544426        2.7834891399       -0.2179880377
 H       -14.9522638742        1.9925950280        1.9679961839
 H       -14.4493317718        3.6657795426        1.9501963668
 H       -11.1474435842        1.2757700094        6.0131539316
 H       -12.1865831029        1.6897456053        7.2723376405
 H        -9.8978991151        2.4878807510        7.7943028066
 H       -10.9164814505        3.7245059291        7.7222846959
 H       -11.5055486004        6.5716811977        6.7978607555
 H       -11.4515718591        7.4991039892        5.1904162817
 H       -10.1383661605        7.6055969136        6.2573462653
 H        -9.6474117840        5.0050298943        8.0640355286
 H        -8.8767490927        6.4901784412        7.5308618436
 H        -7.8824676029        4.9420789578        7.7520605272
 H        -7.7332047391        4.5895733422        4.2137451958
 H        -7.1613440057        4.3598883679        5.7890335940
 H        -7.4059954465        6.0834407644        5.3110223556
 H       -15.5351508005        3.1183144466        3.8884611289
 H       -14.5054690239        4.3239658867        4.7760812845
 H       -15.4288848340        3.0915566599        5.6486048723
 H       -13.5973553229        0.1400626572        4.9265949604
 H       -15.0508643272        0.6900675363        4.3689217107
 H       -14.7646861279        0.9058203776        6.0639391008
 H        -9.6675377233        4.0421331408       -1.7325841971
 H       -10.1011602850        5.0157880390       -0.3007932837
 H       -11.2877544509        4.8072281810       -1.7047596819
 H       -12.3902307787        2.5534979552       -2.0562895468
 H       -11.7188531241        1.1434549055       -1.2181428431
 H       -10.7641982633        2.1739525920       -2.4592346300
 H        -3.9142286749       -1.7691902815       -0.9587258302
 H        -5.2417944768       -1.4992979865       -2.2368001943
 H        -5.5337858563       -2.3257843783       -0.7522932465
 H        -4.0009699183       -0.2296727627        0.8625826884
 H        -5.5236802834       -0.3286052150        1.5447876815
 H        -4.9426236844        1.1491250843        0.9573054584
 H        -6.3879095549        3.3334762804       -6.5253927939
 H        -7.1321120397        4.8995551466       -6.6440938164
 H        -8.1512391141        3.6146668577       -6.1576113596
 H        -5.4864124216        5.9307203655       -5.4350439833
 H        -4.5173864152        4.4310849348       -5.0372109286
 H        -5.1093685789        5.5366270882       -3.8245457783
 H       -12.0937408112        4.1929353381       -6.6417494699
 H       -12.4121979997        4.8344999449       -8.1199935588
 H       -13.7003270708        4.8775916101       -6.8939938704
 H       -11.8252264122        7.6847707195       -8.3918390945
 H       -12.8828375366        8.4404413239       -7.3868844977
 H       -13.5684754652        7.1352829674       -8.2562337660
 Na      -10.4726228356        3.7494990459        3.0520344845
