117

 C       -12.8021060607        8.0162794795       -4.6469532080
 C       -12.8199897887        6.6332624005       -5.2732912624
 O       -13.2196065254        5.6805864474       -4.5789748807
 C       -12.2000591457        6.4690839969       -6.6754423569
 C       -10.5756150714        6.6537982093       -6.5403732288
 O        -9.9035562590        7.1614726853       -7.4273383899
 C        -9.8504560240        5.8883139328       -5.2922279976
 C        -8.5221341710        6.3693485588       -5.0612246500
 C        -7.6573442109        5.4402040452       -4.0899914646
 O        -7.5414614886        5.7012406128       -2.9309102142
 C        -6.7865706582        4.2756687281       -4.6455699299
 C        -6.8264167662        2.9349653629       -3.7346341013
 O        -7.7853016394        2.6920036481       -3.0396801421
 C        -5.4804994275        2.1836685861       -3.7465344999
 C        -5.5575628552        0.8321898968       -3.0822036238
 C        -5.2024227786        0.9504954202       -1.5551107856
 O        -4.7047394581        1.9495132999       -1.1222734688
 C        -5.5595580983       -0.2131370920       -0.6107200891
 C        -7.0966645038       -0.2897987873       -0.4681490537
 O        -7.6953305268       -1.2124662047       -0.9726071907
 C        -7.7668199295        0.8387699859        0.2863341524
 C        -9.0030481090        1.2527661073       -0.4818898496
 C        -9.8372373031        2.3457298277        0.2177304288
 O        -9.4913841178        2.7188996770        1.3103325643
 C       -11.0750718878        2.9371129176       -0.5213244529
 C       -12.1449533003        3.3098489570        0.4511852356
 O       -11.9451337566        4.2397577840        1.2243008025
 C       -13.3785168567        2.4667898575        0.5899489074
 C       -14.0537447133        2.6071472436        2.0159959985
 C       -13.1272272680        2.3001444053        3.1649196232
 O       -12.0348519001        1.8790752971        3.0052546916
 C       -13.6848139599        2.4444982563        4.6225699992
 C       -12.4323143436        3.0544060267        5.4032345195
 O       -12.1832822595        4.2217484516        5.2486083062
 C       -11.6842676553        2.1719803138        6.2949057924
 C       -10.6134368217        3.0212301922        6.9544429609
 C        -9.6489606159        3.6618931119        5.9442996887
 O        -9.2852076573        2.9178574911        5.0368994065
 C        -9.0715714844        5.1921770378        5.9810182996
 C       -10.2874206680        5.9905751031        5.3338729308
 O       -10.4766572543        5.8297012182        4.1675441412
 C       -10.9273948833        7.0333852722        6.1692180484
 C        -8.6947328974        5.4942399189        7.4046927352
 C        -7.8142771382        5.2082147947        5.1074919070
 C       -14.8189370220        3.5590918796        4.6707500896
 C       -14.0684661851        0.9992148305        5.1620631872
 C       -10.5261654687        4.2103168960       -1.2393008836
 C       -11.5639786068        1.9390196874       -1.6570851420
 C        -4.9386509055       -1.5739166995       -1.0817601361
 C        -4.9314895706        0.1039190926        0.8421494607
 C        -7.2498329398        3.8336188850       -6.0243832714
 C        -5.3390443231        4.9044359435       -4.7677660539
 C       -12.3018665786        5.0526130101       -7.1943845699
 C       -12.6954477259        7.4701525257       -7.6474121915
 H       -12.4089118997        8.1318994625       -3.6748081607
 H       -13.8334622711        8.4029276881       -4.6745754143
 H       -12.2141687530        8.8302986605       -5.2302813076
 H        -9.9722737981        4.8018282040       -5.5263938387
 H       -10.4963543900        5.9530135359       -4.4121859494
 H        -8.5072631038        7.3777504025       -4.6680494923
 H        -8.0271788386        6.5197259012       -6.0120276639
 H        -4.8141945168        2.9202283394       -3.2259655911
 H        -4.9754318433        2.1929081443       -4.7657302430
 H        -4.7779760509        0.1914073703       -3.4295288768
 H        -6.5830312683        0.4428318641       -3.2292955113
 H        -7.0491744124        1.7393704865        0.5479628944
 H        -8.0229665276        0.6597550642        1.3700950329
 H        -9.5999747942        0.3714635171       -0.7319649675
 H        -8.7137728009        1.5978670291       -1.4723919747
 H       -13.1951692609        1.4210688278        0.3663542667
 H       -14.0252436618        2.8613492502       -0.1994718480
 H       -14.8272948466        1.8623602735        1.9782379573
 H       -14.5994948565        3.5334891084        2.0421687517
 H       -11.2277268047        1.2434180633        5.8874077121
 H       -12.3179132578        1.8586015795        7.1504047701
 H       -10.0063094517        2.5183580249        7.7492145365
 H       -11.0450273655        3.7951890930        7.6167311984
 H       -11.4655306732        6.5663751990        7.0351411473
 H       -11.6438683956        7.5311649173        5.4469694869
 H       -10.1463431209        7.7951240265        6.4074711773
 H        -9.3937138446        4.9911328590        8.0864179096
 H        -8.5974879710        6.6034120748        7.4796930904
 H        -7.8122255288        4.9642414558        7.6127929087
 H        -8.2227850985        4.9804922921        4.1231227268
 H        -7.2154477863        4.2583702166        5.3142215016
 H        -7.2532221131        6.1195816718        5.1597529731
 H       -15.8134519119        3.1626129754        4.4442825144
 H       -14.4709807800        4.3282917173        4.0659676476
 H       -14.8564453229        3.9655212611        5.7141407526
 H       -13.2376125858        0.3037282232        4.8759690024
 H       -15.0063673186        0.4942157158        4.8704058807
 H       -14.0926862763        1.0612846610        6.2498457547
 H        -9.4929689322        4.1928890654       -1.5609612886
 H       -10.6595588617        5.0356701731       -0.5738262548
 H       -11.1929598026        4.3633152998       -2.1239268613
 H       -12.4013102012        2.3601086139       -2.1608059383
 H       -11.9169775472        0.9796981409       -1.2558484977
 H       -10.7654090652        1.8934069845       -2.3762129017
 H        -3.8836903364       -1.3736970117       -1.1871646271
 H        -5.3781041194       -1.9954266184       -1.9656051803
 H        -4.9668553628       -2.2598650379       -0.2474554044
 H        -3.8914013993       -0.2584033040        0.9834938666
 H        -5.5908895188       -0.4038634546        1.6252449144
 H        -4.9799633236        1.2425018020        0.8952305137
 H        -6.5907896670        3.0117142037       -6.3774175803
 H        -7.2850907367        4.6694769142       -6.7424864263
 H        -8.2582144610        3.4806927984       -5.9790569840
 H        -5.4006671974        5.8597278662       -5.2230126209
 H        -4.6630816075        4.3356510834       -5.3510767766
 H        -4.8003398745        5.0617383885       -3.8190908629
 H       -11.7778933687        4.3611249200       -6.4779659338
 H       -11.7344010069        4.8582885456       -8.0747176928
 H       -13.3761808752        4.7234600079       -7.3364444983
 H       -12.2380468001        7.3518510614       -8.5491624108
 H       -12.4952067376        8.5132639384       -7.3985605562
 H       -13.8143677685        7.3135241383       -7.7547729044
 Na      -10.3207616051        3.6589276480        3.1273693818
