117

 C       -12.8949940683        8.2520502682       -4.7082054008
 C       -12.9232092932        6.7084915024       -5.1408294782
 O       -13.1149825508        5.8541405315       -4.3279984160
 C       -12.2585223052        6.2835700716       -6.5000603320
 C       -10.6377483413        6.3749396567       -6.4241930012
 O        -9.9453090818        6.8492024025       -7.2857609558
 C       -10.0036849113        5.6121583453       -5.2550283497
 C        -8.6721097838        6.3375941264       -4.9104173982
 C        -7.7938458277        5.4767079958       -4.0091318534
 O        -8.0388563991        5.4602971397       -2.8077302651
 C        -6.6183372426        4.5973860510       -4.7416333586
 C        -6.5920705050        3.2689055127       -3.9500218226
 O        -7.6308714035        2.8135429704       -3.4416044984
 C        -5.2234952912        2.4932794306       -3.7383477265
 C        -5.3491206362        1.0961622402       -3.0447196176
 C        -4.9818910181        1.2120845655       -1.5473693169
 O        -4.5124246187        2.1958427886       -1.0164872864
 C        -5.2816096773       -0.0790928097       -0.6725241488
 C        -6.9145114038       -0.0965728046       -0.5862936063
 O        -7.5609010592       -0.9783327952       -1.1116733371
 C        -7.6348294908        1.1017291924        0.0328355062
 C        -8.9344469940        1.4837500321       -0.6525547536
 C        -9.7977293399        2.4656387954        0.1477419617
 O        -9.5298037776        2.7493856155        1.3000965331
 C       -11.0655636040        3.1849259859       -0.5053057026
 C       -12.2047434078        3.3718929216        0.6469460687
 O       -12.2160518194        4.3577767045        1.3760616281
 C       -13.4034764634        2.4306377678        0.6935390779
 C       -14.1278785540        2.5344587133        2.0181984387
 C       -13.2621051384        2.1431759362        3.1446426353
 O       -12.1366830040        1.6206326369        2.9881833863
 C       -13.8314969050        2.1701281963        4.6730025917
 C       -12.5856157579        2.8507193220        5.4787854344
 O       -12.2564320731        4.0335757585        5.2161672907
 C       -11.8244409090        2.0077996753        6.4790122634
 C       -10.6136166992        2.8041829912        7.0237267346
 C        -9.7969838113        3.4449964592        5.8725567934
 O        -9.6762489538        2.7861986204        4.8372984034
 C        -9.1309536728        4.7364873366        6.0698101003
 C        -9.8827271863        5.8121760270        5.1279249534
 O        -9.6637743798        5.7292382619        3.9374141964
 C       -10.8615382582        6.9532712215        5.7056553017
 C        -9.0578098013        5.2297741828        7.5832837075
 C        -7.6673405072        4.5470997230        5.5102914518
 C       -15.0474268357        3.0640064488        4.8582563024
 C       -14.1546219324        0.6795147941        5.0789391379
 C       -10.5644254843        4.6512459070       -0.8576159349
 C       -11.6218126628        2.4733881131       -1.7488728959
 C        -4.7691390946       -1.3816557545       -1.3658889662
 C        -4.6916058717        0.0121635971        0.7589540142
 C        -6.9710875613        4.2187389546       -6.1996535405
 C        -5.2984979459        5.4230617087       -4.7170486256
 C       -12.6037546523        4.8354336304       -6.9072660923
 C       -12.5768633492        7.2870980515       -7.6867850274
 H       -13.5771998107        8.5771009564       -3.8345004681
 H       -13.0994401118        8.9991914297       -5.4846342617
 H       -11.9442394995        8.4765980259       -4.2783787148
 H        -9.7672220292        4.5942074550       -5.6600894741
 H       -10.6708245699        5.5239256453       -4.3740842399
 H        -8.9077493344        7.2796984426       -4.3778207725
 H        -8.0756331569        6.5290100772       -5.7635993521
 H        -4.5514107510        3.1095287721       -3.0683041983
 H        -4.6607172779        2.3955082824       -4.7414746076
 H        -4.6815828721        0.4084251263       -3.5157307984
 H        -6.4114252363        0.7933718191       -2.9917936214
 H        -7.0097727272        1.9998937329        0.1248807715
 H        -7.7750073576        0.9374153891        1.1814900401
 H        -9.5384064928        0.5877179567       -0.9262466807
 H        -8.7290449119        1.8471459255       -1.6485216047
 H       -13.0529963533        1.3896334396        0.6115092197
 H       -13.9474496014        2.5608312183       -0.2032341808
 H       -14.9810039741        1.8757806245        1.9642361643
 H       -14.6090157433        3.4533373643        2.1760215980
 H       -11.3980021465        1.0784979195        6.0425349916
 H       -12.4168265308        1.6070621369        7.3303367799
 H        -9.8639119309        2.1923236537        7.5815122861
 H       -10.9515436375        3.5647226437        7.8046002670
 H       -11.6644168421        6.5112543186        6.3578408482
 H       -11.2207280818        7.4604222297        4.8056650585
 H       -10.2453945105        7.6858652688        6.3173150665
 H        -9.8973812962        5.8429304653        7.7216226415
 H        -8.2230912890        5.9485681357        7.5928196694
 H        -8.7742706109        4.4034709319        8.2801879876
 H        -7.6403474278        4.0435538090        4.5237618223
 H        -7.1780781777        3.9266331097        6.2300623238
 H        -7.2810984629        5.5814497888        5.4695130716
 H       -15.9162903992        2.6108012524        4.3949025034
 H       -14.7811132503        4.0273188015        4.3561347074
 H       -15.0954047602        3.2442045232        5.8864398647
 H       -13.4207106054       -0.0652396507        4.7700191957
 H       -15.0585632141        0.4150605837        4.5612922791
 H       -14.4813520343        0.6252677038        6.1703206789
 H        -9.7294502384        4.6099255811       -1.5475441193
 H       -10.1803712460        5.1389858548        0.0535359384
 H       -11.3444286714        5.1747324846       -1.2907864382
 H       -12.3741212907        3.0899802053       -2.2126601630
 H       -12.0052846635        1.5058436750       -1.4472828450
 H       -10.8399452142        2.3512173543       -2.4893608015
 H        -3.7560887378       -1.2665464771       -1.6876411586
 H        -5.4533152736       -1.5214522042       -2.2064482659
 H        -4.8747643464       -2.2641650495       -0.7049075439
 H        -3.5741682723        0.3415745641        0.6564003614
 H        -4.6461750281       -1.0753913043        1.1116483239
 H        -5.1569080938        0.6682614251        1.4677307151
 H        -6.1536742865        3.6005042195       -6.5529888716
 H        -6.9587275693        5.0520625687       -6.8760886593
 H        -7.9490687051        3.6746794260       -6.2337921592
 H        -5.4302411068        6.4392499165       -5.0779102146
 H        -4.5286232814        4.9563583346       -5.3251887550
 H        -4.9143620174        5.5483590581       -3.7461557199
 H       -12.5090758293        4.0818248857       -6.0963138687
 H       -11.8062716152        4.5982613440       -7.7037001078
 H       -13.5585596465        4.7058870766       -7.4115572785
 H       -12.2168376246        6.8727332524       -8.7087655980
 H       -12.0808069328        8.2314882469       -7.6248864773
 H       -13.6025823486        7.4725893497       -7.7743075898
 Na      -10.6040051608        3.8054287724        3.0402791435
