117

 C       -12.8810544850        8.1132872831       -4.6764423246
 C       -12.7361944552        6.7531803248       -5.1638612773
 O       -13.1361083148        5.8589429310       -4.4284533944
 C       -12.1893960440        6.3646260666       -6.6094137245
 C       -10.6763634727        6.2971240287       -6.4665496271
 O       -10.0239020736        6.8935657746       -7.2705337139
 C        -9.9498471620        5.6850432987       -5.2021787595
 C        -8.6887396569        6.3712587199       -4.9688447268
 C        -7.6935710319        5.4927852390       -4.0589698990
 O        -7.9066511411        5.4735781832       -2.8760441298
 C        -6.6035104117        4.6081244662       -4.6481804131
 C        -6.6074543629        3.2735553159       -3.8191745719
 O        -7.6758683649        2.8175048096       -3.4787337718
 C        -5.2851192925        2.4152852972       -3.8637083513
 C        -5.4051172940        1.1260068473       -3.0069902106
 C        -5.0071065184        1.1579170177       -1.5087535369
 O        -4.5535733650        2.1576202716       -1.0009792647
 C        -5.3412175969       -0.1886737141       -0.6311145383
 C        -6.9162427590       -0.1198075359       -0.5230321214
 O        -7.5347157592       -1.0482504727       -1.0782227987
 C        -7.6522529082        1.0891399180        0.0901661466
 C        -8.9961274104        1.4328018131       -0.5978457584
 C        -9.8735540193        2.4506253297        0.1818840609
 O        -9.4670292022        2.7648875319        1.3010700734
 C       -11.0931512207        3.1629733453       -0.5030982517
 C       -12.1867313766        3.3751088968        0.5562548857
 O       -12.0784032145        4.2723045744        1.4026854135
 C       -13.3699499515        2.3481102882        0.6832767019
 C       -14.1623469465        2.5321248223        2.0093961079
 C       -13.2831949343        2.1337678488        3.1437428971
 O       -12.2096131802        1.6710300131        2.9530903647
 C       -13.8076098447        2.2693364880        4.6608496496
 C       -12.6176576534        2.8094439411        5.5177344132
 O       -12.2642142849        3.9499070622        5.2924200001
 C       -11.8744802882        1.9682167728        6.4878350127
 C       -10.6298441654        2.7541109507        7.0698161823
 C        -9.7362507235        3.3980014148        5.9275575240
 O        -9.5793966904        2.7689668483        4.8826927946
 C        -9.0790390728        4.8934945036        6.0437905509
 C        -9.8849914849        5.7635198257        5.1385298876
 O        -9.8703678149        5.7832239977        3.9238291832
 C       -10.8321981768        6.8962890573        5.7492128793
 C        -9.0015839105        5.4223752958        7.5260404139
 C        -7.5846101540        4.7672418842        5.4074360252
 C       -15.0002545401        3.2490502398        4.8221211408
 C       -14.0636828905        0.8020021415        5.0154235863
 C       -10.4659867021        4.5074795302       -0.9376714738
 C       -11.6570324977        2.3930550654       -1.6436643692
 C        -4.8963023589       -1.4704914111       -1.2774819211
 C        -4.7404925503       -0.0017875734        0.7925208492
 C        -7.0503209605        4.1833591362       -6.0582027239
 C        -5.3178035431        5.3459583088       -4.7978119101
 C       -12.6075894754        4.9175100611       -6.9713256260
 C       -12.6130408551        7.3380906007       -7.7386084227
 H       -13.6265564504        8.1756750242       -3.8460196331
 H       -13.2446730051        8.8091283555       -5.4235494679
 H       -12.0076337165        8.5678678359       -4.1393483652
 H        -9.7125059515        4.6082466442       -5.3543701376
 H       -10.6057237536        5.7373511832       -4.3232276520
 H        -8.8188470712        7.3457581820       -4.4619568158
 H        -8.2017071551        6.5618794682       -5.8962446390
 H        -4.3395452768        2.9337995750       -3.6277441579
 H        -5.1937065867        2.1092259758       -4.9480296640
 H        -4.6477487982        0.5008952805       -3.4073651209
 H        -6.4327175517        0.7135003105       -3.0183975970
 H        -7.0249169951        2.0693743895        0.2462592521
 H        -7.7854199253        0.8902676390        1.2053995281
 H        -9.5792454092        0.5358391174       -0.8572039923
 H        -8.7671796415        1.7846866796       -1.6016934641
 H       -12.9928355327        1.3022361857        0.5354022039
 H       -13.9295790096        2.5287060533       -0.2558476680
 H       -15.1277337151        1.9680493551        2.0105733178
 H       -14.5231007092        3.4878777271        2.0336615502
 H       -11.5323473997        0.9689546267        6.1276481471
 H       -12.5338524801        1.6965696845        7.3444871007
 H        -9.9253468662        2.1927454561        7.7448692355
 H       -10.9930720595        3.5468778831        7.7574882212
 H       -11.3777946662        6.3726413487        6.4684210409
 H       -11.4121016614        7.3602401804        5.0076270584
 H       -10.2009278261        7.6741153703        6.2986622359
 H        -9.9073029008        5.9724750057        7.7920564382
 H        -8.1455649113        6.1825492782        7.5307809281
 H        -8.6910518989        4.5760138435        8.0740178805
 H        -7.6775483336        4.2059257299        4.4823160828
 H        -7.0008314701        4.1131842649        6.1056807404
 H        -7.2272501721        5.7086454891        5.2633289932
 H       -15.6482755403        2.8625702308        3.9869701324
 H       -14.6764653338        4.2505503023        4.6147421401
 H       -15.4073879846        3.1685659495        5.8647215034
 H       -13.1189523202        0.2411636117        4.9659802851
 H       -14.6610940576        0.2987477465        4.2861819394
 H       -14.6152373101        0.7137289276        5.9632692483
 H        -9.8136396807        4.4047409172       -1.7705753839
 H        -9.8979500844        4.9297683014       -0.1482621026
 H       -11.2663017883        5.1397894695       -1.2182840445
 H       -12.4836732909        2.8599532708       -2.1049244007
 H       -11.8986190731        1.3863687986       -1.2467756973
 H       -10.9054832125        2.3671009498       -2.4081500999
 H        -3.8328532459       -1.4052088739       -1.1742986394
 H        -5.2284632722       -1.5780977850       -2.3201770428
 H        -5.2167734878       -2.3631006008       -0.6853553060
 H        -3.6401159551        0.1535574139        0.7997743720
 H        -4.9539909978       -0.9307599179        1.4156377973
 H        -5.2296462614        0.9904096659        1.2729531831
 H        -6.2360959319        3.6164155720       -6.5393865100
 H        -7.2094137489        5.0315139335       -6.7232994550
 H        -7.9725338845        3.6396651283       -5.9720232601
 H        -5.4547641853        6.3372171364       -5.2150543797
 H        -4.6424752368        4.7858559755       -5.4252661703
 H        -4.7567066834        5.5543246754       -3.8630878895
 H       -12.2788276523        4.2175643713       -6.1703357834
 H       -12.0958338767        4.6077787317       -7.8299021887
 H       -13.6676639862        4.8060553241       -7.1606919817
 H       -11.9626431917        7.1886317302       -8.5585947257
 H       -12.5014522493        8.4089761472       -7.5876287556
 H       -13.6849480328        7.1266830168       -8.0592414167
 Na      -10.5837484870        3.8778460300        3.0125924823
