117

 C       -12.7926475713        7.9054085423       -4.7232953383
 C       -12.7009009581        6.5718564914       -5.3928644631
 O       -13.0817936763        5.5659358914       -4.7990941187
 C       -11.9711546160        6.5957089016       -6.7268878834
 C       -10.4097982083        6.9224956574       -6.2954267226
 O        -9.9541137312        7.9897775432       -6.6007923432
 C        -9.6898363192        5.8149411360       -5.6013611426
 C        -8.2339744658        6.1831441686       -5.3100886808
 C        -7.6255896373        5.1348623477       -4.2739536587
 O        -7.7969488879        5.2944037074       -3.0550100879
 C        -6.8584451992        3.8966502965       -4.8534382581
 C        -6.9035383028        2.6668072948       -3.8487103760
 O        -7.8712278686        2.5380894917       -3.1164890081
 C        -5.6696743524        1.6948106400       -3.7753380173
 C        -5.8074600101        0.4471653348       -2.9099782558
 C        -5.2674161949        0.6703520399       -1.4229649761
 O        -4.7561599783        1.7125868097       -1.1046659914
 C        -5.5154240726       -0.5393587485       -0.4159428920
 C        -7.1698122112       -0.7002356991       -0.2371675357
 O        -7.7645708415       -1.6309540310       -0.6549499480
 C        -7.8726160452        0.4816831555        0.4728653600
 C        -9.0842266022        0.9850716655       -0.4184840114
 C        -9.7577667328        2.1621929459        0.3052494988
 O        -9.3773044031        2.6481430654        1.3584428669
 C       -10.9524799279        2.8416889762       -0.5189695712
 C       -12.0250868525        3.3425948394        0.4997244248
 O       -12.0553497900        4.4248332806        1.0677992235
 C       -13.1585659295        2.2407248326        0.8764144755
 C       -13.9994568027        2.6784205613        2.0849942857
 C       -13.1241855980        2.5686026417        3.3356840102
 O       -11.9814721046        2.2847946317        3.2044366640
 C       -13.8029391906        2.6342743488        4.8480485632
 C       -12.6758911478        3.3475409816        5.6759953334
 O       -12.7369624987        4.5149051921        5.9608601161
 C       -11.5241215208        2.5230432361        6.1411996715
 C       -10.3528925476        3.2881814638        6.7550386948
 C        -9.6094818246        4.0561807682        5.6849346983
 O        -9.5070483601        3.4545928710        4.6203844644
 C        -9.0187053256        5.4118870106        5.8687898219
 C       -10.1751526476        6.3525272672        5.2146174201
 O       -10.5561324020        6.1767987516        4.0847906882
 C       -10.7428021079        7.4255133239        6.1546965389
 C        -8.6965513480        5.7113689757        7.3744375809
 C        -7.7204217609        5.5505938203        4.9161103893
 C       -15.1322322628        3.4901440108        4.8678465357
 C       -14.0220999997        1.1734799534        5.3556810250
 C       -10.2778399747        3.9868127301       -1.2722366879
 C       -11.5764807417        1.8190766062       -1.5063616024
 C        -5.0445321073       -1.8663359199       -1.0159034593
 C        -4.8301685013       -0.1753049532        0.9444522138
 C        -7.3985478941        3.2838353182       -6.1139432506
 C        -5.4460216369        4.3755291963       -5.1948164910
 C       -12.0572320758        5.1631003729       -7.3714111644
 C       -12.5638148723        7.5892066471       -7.7577207182
 H       -12.2895312889        8.6479507976       -5.2569355357
 H       -12.3469414029        8.0006176120       -3.7628079745
 H       -13.8632065336        8.2866549979       -4.5975408134
 H        -9.7587464795        5.0058715420       -6.3411201443
 H       -10.2808177349        5.5416437815       -4.7452286968
 H        -8.2005165987        7.2348464032       -4.9050126756
 H        -7.6054521482        6.1973813256       -6.1942493647
 H        -4.9512470164        2.3765378257       -3.3986253461
 H        -5.2188925180        1.4690524470       -4.7422260673
 H        -5.2844985513       -0.4146557377       -3.3012668892
 H        -6.8784244064        0.0911790751       -2.8111576680
 H        -7.1787014135        1.3084070332        0.5117155235
 H        -8.2631936368        0.1745818558        1.3518636967
 H        -9.7697601849        0.0933230169       -0.4814579810
 H        -8.7827693000        1.2104680250       -1.4623743419
 H       -12.6851408996        1.2464763996        1.1399726222
 H       -13.7783361427        2.1879257724       -0.0425038575
 H       -14.8706954610        1.9443224650        2.1766059806
 H       -14.3382032404        3.7054175202        1.9767910716
 H       -11.0773390949        1.8766187090        5.3870507828
 H       -11.8965733859        1.9765365970        7.0027309037
 H        -9.7052443266        2.5088789427        7.1384771838
 H       -10.6494754382        3.9506790225        7.5422614634
 H       -11.3221689393        6.9987340775        6.9016896025
 H       -11.3884607263        8.1365816446        5.6451763567
 H        -9.8736351981        7.9148100871        6.4298570982
 H        -9.5224475765        5.9473657813        8.0638383936
 H        -8.0172564021        6.6101839263        7.3240285259
 H        -8.0313806356        4.9680915925        7.6729248059
 H        -8.1064892598        5.6431960743        3.9272692225
 H        -6.9870308129        4.7364358706        5.0771237646
 H        -7.1304191696        6.4006364407        5.0932466217
 H       -16.0762160269        3.0811278653        4.3881976661
 H       -14.9162309462        4.4615604908        4.4329345531
 H       -15.3298059231        3.7228829578        5.9684916877
 H       -13.0498025118        0.6459496575        5.3081939975
 H       -14.7344015156        0.6021093166        4.7865505307
 H       -14.2112023604        1.0507847406        6.4241698681
 H        -9.2739003630        3.7878326232       -1.5141806319
 H       -10.3571589870        4.8902677115       -0.7743821534
 H       -10.7758942112        4.1610265437       -2.2251253533
 H       -12.4532442020        2.3066039944       -1.8603836851
 H       -11.8036708594        0.8359518057       -1.0543279104
 H       -10.9753964460        1.5846020217       -2.3691295642
 H        -3.9970008778       -1.8282239378       -1.2490618448
 H        -5.5467030054       -2.1793957709       -1.9258649042
 H        -5.3152561093       -2.6039078334       -0.2332118483
 H        -3.7981235228        0.0608778587        0.6949620893
 H        -4.9279708211       -0.9372032045        1.6976839378
 H        -5.2535981146        0.6574362048        1.3087872023
 H        -6.8163168222        2.4185564555       -6.4795993227
 H        -7.4617698997        4.0232684398       -6.9200606512
 H        -8.3865338644        2.9264176163       -5.8559292020
 H        -5.4882090630        5.3265308240       -5.7159363127
 H        -4.8767109219        3.7999806260       -5.8771161049
 H        -4.7653619351        4.6458473272       -4.3592252897
 H       -11.8022010423        4.3276956045       -6.7204952227
 H       -11.5101449975        5.1785697768       -8.2486900335
 H       -13.0638753537        4.8575441621       -7.6848946640
 H       -11.8777214459        7.8668465682       -8.4829699841
 H       -13.1316733713        8.3974341606       -7.2693533123
 H       -13.3078390834        6.9492239685       -8.3530509021
 Na      -10.3319559732        4.3042566926        2.6215744827
