117

 C       -13.1236421326        7.9417019449       -4.7729567525
 C       -12.7624194784        6.6022454643       -5.4096147552
 O       -12.8738595281        5.5249523087       -4.9194988485
 C       -11.9200775230        6.7140866349       -6.7324536636
 C       -10.3903498684        6.9603057714       -6.2919393379
 O        -9.8629434599        7.9770449036       -6.1682869152
 C        -9.7035999168        5.5872148540       -5.8715684708
 C        -8.2404087984        5.9008600471       -5.2969413673
 C        -7.7136049410        4.8468672690       -4.2691803328
 O        -7.7707791071        5.1142254754       -3.0689770607
 C        -6.9158408648        3.6112939134       -4.8463136086
 C        -6.9113690037        2.4004001389       -3.8448744972
 O        -7.9758511941        1.9598147777       -3.4565283912
 C        -5.5844755497        1.6289355693       -3.5826212996
 C        -5.7124049758        0.2779238522       -2.8852654356
 C        -5.3334467760        0.4341354421       -1.3662265328
 O        -4.7603298043        1.4623349615       -1.0216233493
 C        -5.6454337676       -0.6765650944       -0.4293508693
 C        -7.1472499345       -0.6747496914       -0.1171048488
 O        -7.8398015729       -1.6384517063       -0.2690335921
 C        -7.7209916779        0.6208738627        0.5049732147
 C        -9.1099492796        0.9790523228       -0.2302552638
 C        -9.8191484461        2.2027429509        0.3427001386
 O        -9.4146779454        2.6707795017        1.4087602995
 C       -10.9503631161        2.8265594183       -0.4932269622
 C       -12.0804662505        3.2566830387        0.4076708332
 O       -12.0246489175        4.3220049428        1.0138390346
 C       -13.2388905187        2.3307113370        0.8459968053
 C       -13.8352528409        2.8149669003        2.1976205375
 C       -12.9856169477        2.7876724269        3.4747378089
 O       -11.7987674035        3.0092021926        3.5357503619
 C       -13.7310814537        2.7255911814        4.8495389436
 C       -12.7099168266        3.2682347187        5.9366922721
 O       -12.9840446193        4.3912265973        6.4133063983
 C       -11.5005441180        2.4681516267        6.4567021106
 C       -10.3800722214        3.5058183779        6.8765331192
 C        -9.5883763943        4.1012916031        5.6513531529
 O        -9.5260843227        3.4319221633        4.6042820985
 C        -9.1242000245        5.5414309426        5.6587803845
 C       -10.1254152894        6.5495927045        4.8585494022
 O       -10.5135045805        6.3062345584        3.7228120494
 C       -10.6222060779        7.6727125031        5.6967399395
 C        -8.8120246543        5.9889149876        7.0323343025
 C        -7.8041579422        5.7205644742        4.8405150102
 C       -14.9450422984        3.6320420686        4.8840717626
 C       -14.0302202443        1.2747518448        5.1409385684
 C       -10.3632532556        4.1057825889       -1.1657710950
 C       -11.4330259155        1.8443165209       -1.6218861410
 C        -5.2276157340       -2.0121350042       -1.0076668210
 C        -4.8573118436       -0.4680721459        0.9138367918
 C        -7.5102133663        3.0104186304       -6.2104670335
 C        -5.5301247366        4.1744915432       -5.1751725625
 C       -12.1002801476        5.4421869330       -7.5553792919
 C       -12.4200419989        7.8505863481       -7.6626983760
 H       -13.1617593807        8.7520579954       -5.4559480482
 H       -12.3643499810        8.2932107046       -4.0517055564
 H       -14.1018481951        7.9785650929       -4.2021773070
 H        -9.5766311077        4.9277675962       -6.7336109606
 H       -10.3801084685        5.2112577894       -5.1458902738
 H        -8.3243551650        6.7853167713       -4.6685694067
 H        -7.5245094594        5.9986369497       -6.1095476861
 H        -4.8563737012        2.2481479725       -3.0592230904
 H        -5.1700827915        1.5026992168       -4.6217949165
 H        -5.0687605471       -0.4759642177       -3.2772363136
 H        -6.7002874934       -0.2299353097       -2.9155828301
 H        -7.1279916280        1.4505603383        0.2527052072
 H        -7.9455637575        0.5300285314        1.4997638898
 H        -9.8277465252        0.1110446523       -0.0765158148
 H        -8.8635864994        1.0910672013       -1.3021671631
 H       -12.8244001546        1.2811005471        0.8694242650
 H       -14.0558629916        2.3058587866        0.0758542154
 H       -14.7728815356        2.2368099672        2.4116195510
 H       -14.1608881301        3.8898709963        2.0125793083
 H       -11.1646635803        1.7629947262        5.6536206332
 H       -11.8227182904        1.9528127255        7.3861031427
 H        -9.5526618167        3.0070434760        7.3983578869
 H       -10.9154592639        4.2443200670        7.4553231275
 H       -11.2209434260        7.3238155165        6.5729577462
 H       -11.2725744011        8.2420783358        4.9927399211
 H        -9.7642690759        8.2432140252        5.9408619631
 H        -9.6567444000        5.9548665723        7.7792827504
 H        -8.6041530919        7.0681252281        7.0411859678
 H        -7.9150647855        5.5003521472        7.3800977412
 H        -7.9240107588        5.1683212782        3.9420385642
 H        -6.8424384361        5.4293129374        5.2852500459
 H        -7.7956077327        6.7485615968        4.4418467714
 H       -15.6198903789        3.3356364829        4.0917680076
 H       -14.7621850454        4.6557373706        4.6300655910
 H       -15.4313447271        3.6306457467        5.8789274053
 H       -13.1185677733        0.6518675061        4.9596924579
 H       -14.7118723592        0.8485880613        4.3619293528
 H       -14.4571986090        0.9675188036        6.0718950178
 H        -9.9545922668        3.8983248915       -2.1385017334
 H        -9.5568749774        4.4893597721       -0.6000071061
 H       -11.0864836948        4.9679637194       -1.2655054750
 H       -12.1586403150        2.3127227938       -2.2403742677
 H       -11.8569235677        0.9288829218       -1.1968039928
 H       -10.6737857024        1.6153613905       -2.3398362463
 H        -4.1524761306       -2.0676431748       -1.2246959346
 H        -5.8027228373       -2.2610646604       -1.8826312293
 H        -5.4117288553       -2.7430967858       -0.2292664940
 H        -3.7987719645       -0.8605346410        0.8370226290
 H        -5.3766094480       -0.9092594525        1.8098573755
 H        -4.8469259669        0.6365297654        1.0668980721
 H        -6.8211218475        2.1941950768       -6.4897251167
 H        -7.3969514772        3.7100586156       -7.0561370219
 H        -8.5124949041        2.6819580079       -6.0953446437
 H        -5.4174049798        5.0707018521       -5.7110244996
 H        -4.9688934880        3.4577143044       -5.6798259408
 H        -4.9315076355        4.4020591379       -4.2912252982
 H       -11.8800706088        4.5507949330       -6.8969361197
 H       -11.3894729478        5.3900582402       -8.3819263355
 H       -13.1169786514        5.2914857444       -8.0475553795
 H       -12.2593868817        7.5108496328       -8.6830402325
 H       -11.8586909184        8.8093322789       -7.6127390234
 H       -13.4788351444        8.0475750427       -7.4058196714
 Na      -10.1551083417        4.4581564315        2.5416543898
