117

 C       -12.8810304683        7.9654654588       -4.6826293069
 C       -12.7159195249        6.5664409243       -5.3537649742
 O       -13.0241141880        5.5246963475       -4.8530177579
 C       -11.9634769050        6.6038584363       -6.7490149444
 C       -10.4762812271        6.9458844766       -6.4037810876
 O       -10.0710278935        8.0386941839       -6.5317164529
 C        -9.5981299049        5.7534236705       -5.6696914514
 C        -8.1470531973        6.1245741525       -5.3109797802
 C        -7.6628295931        5.1017896165       -4.2831895440
 O        -7.8046629476        5.3985998579       -3.1223238373
 C        -6.8820840501        3.8222736271       -4.8234592959
 C        -6.8288745036        2.5797446125       -3.8084127364
 O        -7.8696082429        2.2914633730       -3.2526597287
 C        -5.6107383316        1.6855974627       -3.7477014948
 C        -5.7172851836        0.4198896570       -2.9430283571
 C        -5.3342975347        0.5954712190       -1.4256998973
 O        -4.7324033798        1.6062225780       -1.0980322873
 C        -5.6138293916       -0.5673031959       -0.3865337887
 C        -7.1304253073       -0.6467896440       -0.1657020668
 O        -7.7416649761       -1.6265078062       -0.5441315405
 C        -7.8398579105        0.5182279665        0.5411256283
 C        -9.1088002842        0.9402295354       -0.3193421573
 C        -9.7943133669        2.1103953958        0.3191319602
 O        -9.3270097098        2.5874512748        1.3484431857
 C       -10.9793021499        2.8235119112       -0.4644328760
 C       -12.0079506144        3.3229315478        0.4881500905
 O       -12.0125185621        4.4722915433        0.9169953876
 C       -13.1629398147        2.2816126545        0.8747709099
 C       -14.0292705161        2.5903980596        2.0747604920
 C       -13.1803265772        2.5690625257        3.3645035332
 O       -11.9648114799        2.4349651258        3.3629625562
 C       -13.7288466637        2.6995261724        4.8079073226
 C       -12.6943790968        3.3483677125        5.7116432406
 O       -12.8889000744        4.5373229568        6.0714445911
 C       -11.5653410447        2.4183474829        6.3122180502
 C       -10.3701827314        3.2342727915        6.8266330542
 C        -9.5926136389        3.9852755850        5.6559665882
 O        -9.3631209928        3.4473983885        4.5626295916
 C        -9.0549918697        5.4684348109        5.7843213899
 C       -10.1325453423        6.3901111312        5.1897011998
 O       -10.5596647431        6.2564045054        4.0571672219
 C       -10.7681974577        7.5696440478        5.9949956575
 C        -8.6779940111        5.7750625131        7.2788109917
 C        -7.7929254219        5.5320676162        4.9516401009
 C       -15.0308306122        3.4694057866        4.8731717128
 C       -13.9718508903        1.2579267151        5.3215207828
 C       -10.2552815678        3.9862890425       -1.2245168414
 C       -11.6763076520        1.8622642336       -1.4677974095
 C        -5.1405751031       -1.9519989519       -0.9228279963
 C        -4.8446783774       -0.2485226624        0.9090639190
 C        -7.5966916023        3.3212639081       -6.1327621594
 C        -5.4198236580        4.3414965623       -5.1364236327
 C       -12.1206915802        5.1638204974       -7.4077033015
 C       -12.4346104199        7.6890765251       -7.7435311410
 H       -12.5592825513        8.8159044476       -5.2206151378
 H       -12.2569883048        8.0325883840       -3.7858065642
 H       -13.8775051301        8.1700863037       -4.3423364358
 H        -9.5994424952        4.9359420402       -6.4313794130
 H       -10.1364337998        5.4548559018       -4.7777883082
 H        -8.1190976184        7.1292842282       -4.9076619779
 H        -7.3762086180        6.0395035949       -6.1407763162
 H        -4.7646241101        2.3077631286       -3.5389298376
 H        -5.4309654867        1.4085429337       -4.7908090594
 H        -5.0695998789       -0.3942354569       -3.3165065760
 H        -6.7391172212       -0.0227325203       -2.9852103420
 H        -7.2350552989        1.4142991167        0.5824085877
 H        -8.2388937399        0.0488347912        1.4856247129
 H        -9.7021068534        0.0576851462       -0.5823323713
 H        -8.7013840887        1.3112498826       -1.2535798413
 H       -12.6667932763        1.3753365328        1.1331447905
 H       -13.7752346874        2.1489758481       -0.0438768411
 H       -14.7682014345        1.8741089458        2.0982140685
 H       -14.4608400035        3.6334118895        2.0174143314
 H       -11.1274080658        1.9615468526        5.4355464600
 H       -11.8601438689        1.7388475715        7.0908423714
 H        -9.7050745829        2.5893176848        7.4018710807
 H       -10.7384852000        4.0791865525        7.3831772091
 H       -11.2823120975        7.0892494393        6.8354814422
 H       -11.5234626783        8.1231161714        5.4823628065
 H        -9.9637113621        8.1686782291        6.2627538825
 H        -9.4512296185        6.3359554370        7.8379151188
 H        -7.8629360256        6.4156592312        7.2928073915
 H        -8.2560273525        4.8774595643        7.7224444122
 H        -8.0843013826        5.5966142560        3.9186050066
 H        -7.1740498743        4.7036751202        5.1721662402
 H        -7.1080316337        6.4490966718        5.1118328797
 H       -15.8539643458        3.1308912685        4.2600400753
 H       -14.8371422822        4.5335963923        4.5750129684
 H       -15.2859508314        3.5359942286        5.9460104868
 H       -13.0234128491        0.7630182251        5.4338390520
 H       -14.5758622836        0.5940916867        4.6546025498
 H       -14.3219657312        1.1973488154        6.2896282468
 H        -9.2509287347        3.7588935566       -1.5088276347
 H       -10.2543849361        4.8819039354       -0.6347206525
 H       -10.7753884157        4.2852636136       -2.1523128602
 H       -12.5284530549        2.3878127039       -1.9393212662
 H       -11.9421499225        0.9038590942       -1.0217520938
 H       -11.0083422450        1.6041235303       -2.3224669349
 H        -4.0411921891       -1.8855130502       -1.2140290506
 H        -5.6682494485       -2.3393414344       -1.7993663367
 H        -5.3156305916       -2.6215962584       -0.1154164964
 H        -3.8594953048       -0.4104321796        0.6752195420
 H        -5.1483378351       -0.7795557276        1.7112589401
 H        -4.9534380355        0.7755607835        1.1337591841
 H        -7.0611765107        2.5028768076       -6.6348807336
 H        -7.5783515962        4.1553198067       -6.8501962381
 H        -8.5959387326        3.0234014164       -5.9158508126
 H        -5.4486454670        5.2596455818       -5.7380006424
 H        -4.6796256000        3.7558517935       -5.7106795671
 H        -4.8761625117        4.7650554766       -4.2654096802
 H       -12.1159414978        4.4105420059       -6.6883746791
 H       -11.3991628100        5.0132727937       -8.1782086842
 H       -13.0500544052        5.0128282202       -7.9128793834
 H       -11.5933673796        7.8715163137       -8.4770026544
 H       -12.8744319784        8.5730757127       -7.3064258652
 H       -13.1566780824        7.2010307712       -8.3439593647
 Na      -10.2714054445        4.4255870315        2.5073935900
