117

 C       -12.7222826497        7.9429452862       -4.6774700256
 C       -12.8498667843        6.5547895977       -5.3029094117
 O       -13.1934819926        5.5118960349       -4.7662532798
 C       -11.9916514285        6.4922618258       -6.6392770254
 C       -10.4621873843        6.8062742868       -6.3713166803
 O        -9.8975253391        7.6949176092       -6.9167938955
 C        -9.6695154118        5.9377836251       -5.4612404787
 C        -8.2320969159        6.2297705234       -5.2104070318
 C        -7.6250672972        5.3050161219       -4.1828827535
 O        -7.8110315038        5.3706343821       -2.9695303043
 C        -6.7932329716        4.0254578396       -4.8326398167
 C        -6.7876447155        2.8562417423       -3.7456438187
 O        -7.7169744143        2.7276295537       -2.9599034233
 C        -5.6721455629        1.8229689976       -3.6903572729
 C        -5.9930786113        0.6442208238       -2.7823857209
 C        -5.3187774087        0.8020165405       -1.3735409665
 O        -4.8138804600        1.8862764232       -1.1511319275
 C        -5.4803819395       -0.4344650726       -0.4809315696
 C        -7.0822130686       -0.5980623969       -0.4068846745
 O        -7.7124318268       -1.4466675412       -0.9341202654
 C        -7.7646874895        0.5786875400        0.3446584638
 C        -8.9706609401        1.1111999042       -0.5024290640
 C        -9.7775848918        2.2424549978        0.1539952917
 O        -9.3953730383        2.7121985379        1.2130434122
 C       -11.0430202583        2.7879968978       -0.6201265771
 C       -12.0548310340        3.1515343748        0.4561533305
 O       -11.8973722008        4.1643296955        1.1288233114
 C       -13.3888282332        2.4533979400        0.6760941570
 C       -14.0014914807        2.7867806808        2.0659971772
 C       -13.1433525561        2.3266355411        3.2610924593
 O       -11.9894531941        1.9606767948        3.1759366207
 C       -13.8450389249        2.5323814955        4.6709258773
 C       -12.6160271620        3.2225831806        5.5983766329
 O       -12.5303122415        4.4286117159        5.5702137915
 C       -11.5919085013        2.3347733472        6.3659277378
 C       -10.4097951868        3.1670677702        6.8707321776
 C        -9.5631182849        3.8502494904        5.7981252252
 O        -9.2531119576        3.2460342992        4.7663289236
 C        -9.0768336747        5.3642418716        5.9942545605
 C       -10.1788987695        6.2767422754        5.3557994496
 O       -10.5439336887        6.1336802038        4.2172930219
 C       -10.8337958740        7.2516125219        6.2836614491
 C        -8.5209932142        5.5974493934        7.3972184906
 C        -7.8083220050        5.5777192608        4.9806735529
 C       -14.9469814512        3.6116814488        4.7182044008
 C       -14.0579479593        1.1598805389        5.2534773365
 C       -10.6350925264        4.1465768862       -1.1699812925
 C       -11.6055749321        1.8812553731       -1.7183260440
 C        -4.8358117606       -1.6078859202       -1.2108872574
 C        -4.7774968979       -0.1327916981        0.8994428948
 C        -7.4579206297        3.4690362762       -6.1859611698
 C        -5.3822196256        4.5071337015       -5.0158777893
 C       -12.2725445551        5.0126831789       -7.2835150300
 C       -12.4346947829        7.5257883255       -7.7135756465
 H       -11.7468401602        8.2455552380       -4.5697625726
 H       -13.1248403110        7.9808622248       -3.6527853813
 H       -13.2573860626        8.7783367969       -5.2101810701
 H        -9.8773670524        4.8796506543       -5.8058137715
 H       -10.2752665428        5.9363757111       -4.5527672791
 H        -8.0501582267        7.2238120686       -4.8205371443
 H        -7.5828407680        6.2181789871       -6.1082855804
 H        -4.7026913260        2.3267136180       -3.5027654052
 H        -5.4610943733        1.5117546315       -4.7427343462
 H        -5.7938083682       -0.2933539057       -3.2924674669
 H        -7.0525157776        0.6389736100       -2.4656692130
 H        -7.0282566519        1.4189774664        0.6826498414
 H        -8.1701366851        0.0544071760        1.2659112652
 H        -9.5295651069        0.2021841723       -0.7158834485
 H        -8.6126990304        1.3755772874       -1.4809764602
 H       -13.3050052432        1.4230111651        0.5268457057
 H       -14.0605110164        2.9108505807       -0.0395065146
 H       -14.9439974085        2.3337476423        2.0774339908
 H       -14.1098416301        3.8910402210        2.0468225279
 H       -11.2135838760        1.5884029052        5.6559482106
 H       -11.9812041847        1.8808141684        7.2804217660
 H        -9.7313347086        2.6807231652        7.6168433116
 H       -10.8555619570        4.0092883252        7.4385330995
 H       -11.4850800363        6.5979773253        6.9408678831
 H       -11.5884727004        7.9034869754        5.7076367775
 H       -10.1040952001        7.9089275492        6.7101641814
 H        -9.2630015904        5.3782442283        8.2032388319
 H        -8.0895947576        6.5877519550        7.3868640993
 H        -7.7015871260        4.8954491938        7.5325101179
 H        -8.0712260753        5.0732559053        4.0573879625
 H        -6.9037624270        5.2027539379        5.5023121963
 H        -7.4915840103        6.6438566038        4.7778146786
 H       -15.6573417141        3.4141850807        3.9698393668
 H       -14.5252564017        4.5719018649        4.6073658275
 H       -15.5383820356        3.4798784684        5.6208643850
 H       -13.1462044340        0.5600128671        5.2467440518
 H       -14.8079681243        0.5923780204        4.6546456854
 H       -14.3802166701        1.1378164605        6.2460147347
 H       -10.1407944360        4.0147420013       -2.1545652196
 H        -9.9669791633        4.6927227205       -0.5114050696
 H       -11.5448227249        4.8645263694       -1.3232455166
 H       -12.4183353052        2.3701715360       -2.2531336590
 H       -11.9434840869        0.8861502580       -1.3731733045
 H       -10.7269177645        1.6299432439       -2.3247542165
 H        -3.7843159695       -1.3296691982       -1.4360365061
 H        -5.3083290079       -1.8651138251       -2.1490244991
 H        -4.9244532788       -2.4294443458       -0.5317564857
 H        -3.8899023839        0.5288577435        0.6812289668
 H        -4.5007518340       -1.0618050620        1.4253261257
 H        -5.4168346050        0.3667889092        1.4954636312
 H        -6.7810117278        2.6408519488       -6.4378798762
 H        -7.5002014395        4.1858193383       -7.0232087946
 H        -8.3904858432        2.9933603712       -6.0643064645
 H        -5.1560961916        5.1483861899       -5.8506538651
 H        -4.6370630947        3.7321286791       -5.1510913276
 H        -5.0103441422        5.0085899070       -4.0824481425
 H       -11.9863629763        4.2229789457       -6.5710507570
 H       -11.7369372863        4.8232427729       -8.1868317495
 H       -13.3608114834        4.7961200582       -7.4653039504
 H       -12.1060612402        7.1616738071       -8.6453400447
 H       -12.1304292992        8.5406898580       -7.4801518548
 H       -13.5274196081        7.5028964655       -7.8150625678
 Na      -10.5563874109        4.0998158761        2.8952280862
