117

 C       -13.3575985892        7.8685450483       -4.8130786168
 C       -12.6880170900        6.6339217684       -5.3941574054
 O       -12.7767187176        5.5190599627       -4.9206883317
 C       -11.8320237269        6.8404615703       -6.7326948488
 C       -10.2713088958        6.7818986434       -6.2090686478
 O        -9.7538087325        7.8260490380       -5.9117576432
 C        -9.7960753055        5.3284008438       -5.6950375305
 C        -8.3480240464        5.6204932001       -5.1907052320
 C        -7.8158178975        4.4337672773       -4.3356226100
 O        -8.1685814841        4.4180990636       -3.1909317318
 C        -6.8944512010        3.3433124452       -5.0180655298
 C        -6.9524351688        2.1580980559       -3.9075754747
 O        -8.0013780772        1.6945784191       -3.5368285048
 C        -5.6397443126        1.5634379944       -3.5339972050
 C        -5.8665081956        0.2355266006       -2.7699443583
 C        -5.3091740184        0.2921511737       -1.2800426180
 O        -4.7282461599        1.2823979645       -0.8507885286
 C        -5.6082984204       -0.8977662132       -0.3232383642
 C        -7.1493159665       -0.7548080851       -0.0488226896
 O        -7.8927387502       -1.7305300457       -0.1664164760
 C        -7.7458880093        0.6483644354        0.3556324573
 C        -8.9795708483        1.1390863605       -0.5518457302
 C        -9.6940963045        2.3105977627        0.1802469077
 O        -9.1515732790        2.8511416659        1.1265134180
 C       -10.9396532300        2.9566604460       -0.5194592180
 C       -11.9219907440        3.3976809228        0.5625685216
 O       -11.9941612190        4.5324866545        0.9805952237
 C       -12.9533873425        2.4133456065        1.0340846730
 C       -13.8402218374        2.8357040036        2.2515894510
 C       -13.1140960632        2.9736955628        3.5999949130
 O       -11.9162845683        3.1523521316        3.6787352271
 C       -13.8389623728        2.8772954481        4.9845635852
 C       -12.8502199488        3.4250054617        6.0628165491
 O       -13.2263244325        4.4174884520        6.7114327705
 C       -11.4874034184        2.7236029681        6.2878645672
 C       -10.3895575775        3.8003372454        6.7560531262
 C        -9.5655852711        4.3304911749        5.5690657340
 O        -9.3367839320        3.6327335407        4.5937588267
 C        -9.0929894123        5.7879629890        5.5494282923
 C       -10.0954241574        6.6393189497        4.7217095073
 O       -10.4612199315        6.3346197369        3.6155860846
 C       -10.7696159650        7.8911092478        5.4133283388
 C        -8.8925615825        6.3213860336        6.9617174218
 C        -7.7538116979        5.9403741724        4.8113014203
 C       -15.1895332179        3.5686747687        5.0214116930
 C       -14.0054482162        1.3583288396        5.1671813348
 C       -10.3162547293        4.1844579187       -1.2527455003
 C       -11.6189010945        2.0167633862       -1.4685324970
 C        -5.3398796064       -2.2069350277       -1.0617663921
 C        -4.7895668598       -0.7775289458        1.0221814561
 C        -7.5003275190        2.8837785476       -6.3749073576
 C        -5.4393426732        3.9429457838       -5.3178695147
 C       -12.2138399695        5.5932959040       -7.6521836453
 C       -11.9587037409        8.1590131560       -7.4637000402
 H       -14.3497725529        8.0931411058       -5.2178173401
 H       -12.8163801911        8.8557963257       -4.7798196572
 H       -13.5764140177        7.7028906809       -3.7929343598
 H        -9.8153806681        4.6269966905       -6.5688739020
 H       -10.4197156730        5.0251411191       -4.8682153332
 H        -8.4121935963        6.4724500982       -4.5248135255
 H        -7.7127271251        5.7793278424       -6.0664390498
 H        -5.0755741855        2.3696097317       -3.0049050970
 H        -5.2371388908        1.2775607891       -4.5658903684
 H        -5.5239210159       -0.6083310905       -3.3084846933
 H        -6.9580190610        0.0537190040       -2.6651943327
 H        -7.0441813650        1.4155549193        0.2799069484
 H        -8.0546230626        0.6788972068        1.3760969417
 H        -9.6774602646        0.2744769139       -0.6932599340
 H        -8.5532292175        1.4739444959       -1.4955887393
 H       -12.4940753874        1.4468379655        1.1619076790
 H       -13.5766022302        2.2324680022        0.1523332443
 H       -14.6838223014        2.1669555243        2.4120259155
 H       -14.3736913025        3.8623174756        2.1737655669
 H       -11.1004553381        2.1158643564        5.4317273662
 H       -11.6665428451        1.9658756789        7.1033162112
 H        -9.7210225881        3.1913438982        7.4248549423
 H       -10.8285061903        4.6870161473        7.2315936393
 H       -11.2379265705        7.5082896519        6.4066168239
 H       -11.3743244529        8.3969767664        4.6512571907
 H        -9.9191631510        8.4824971052        5.8054486097
 H        -9.7340577603        6.4065163367        7.7091461287
 H        -8.3305112266        7.2195287963        6.8560328409
 H        -8.2602750579        5.5976374315        7.5066969386
 H        -7.8281573590        6.0416492457        3.7347917701
 H        -7.1000048666        5.1057675858        4.8597042839
 H        -7.2899186839        6.9260517268        5.2161553156
 H       -15.8379194374        3.2238907492        4.2713117758
 H       -15.1555950688        4.6514350801        4.9708809319
 H       -15.6832674715        3.3146087282        5.9467309276
 H       -13.0272792106        0.8933405530        5.0476322898
 H       -14.7454570016        0.8532042557        4.5008780837
 H       -14.3389122370        1.1125484438        6.1244515171
 H        -9.3273752819        3.9212371694       -1.6706815633
 H       -10.1299371735        5.1053655874       -0.6702144694
 H       -10.9291836047        4.4408791956       -2.1791313306
 H       -12.4981782900        2.5026410307       -1.9105710172
 H       -12.0695312406        1.1113925677       -1.0244007111
 H       -10.9149902343        1.8047297530       -2.2942231984
 H        -4.2518305479       -2.2264856519       -1.3046956384
 H        -5.9758783175       -2.4097904866       -1.9081583644
 H        -5.4147735114       -3.0348531184       -0.4046999403
 H        -3.7579829151       -0.3701312037        0.8297090482
 H        -4.5721572734       -1.7857412146        1.4964224600
 H        -5.2680049212        0.0177960903        1.8037837252
 H        -6.8979434221        2.0805787799       -6.8399295748
 H        -7.5036068933        3.7884739975       -7.0011215889
 H        -8.4984499630        2.5725207602       -6.2386838708
 H        -5.4262826849        4.6909313897       -6.1101845814
 H        -4.7244194883        3.1951181077       -5.6397228752
 H        -4.8541101168        4.3940193751       -4.4922070998
 H       -12.3240909311        4.7279259965       -7.0255086314
 H       -11.4715748299        5.2445187445       -8.3620157860
 H       -13.1576304710        5.8724485921       -8.1416799177
 H       -10.8952734287        8.4904358926       -7.7154383429
 H       -12.2688148801        9.0166029248       -6.8845063439
 H       -12.5635511718        8.0577246489       -8.3192548366
 Na       -9.9742002561        4.3493370185        2.4925066822
