117

 C       -13.2776049226        7.9299263248       -4.7404248532
 C       -12.7529808607        6.6569490171       -5.4298125816
 O       -12.7890551700        5.5443651525       -4.9097833093
 C       -11.9221154497        6.7362289909       -6.7260075363
 C       -10.3703284786        6.7535467726       -6.2449925502
 O        -9.9070862074        7.9001776401       -6.0558193472
 C        -9.6248220052        5.4495822671       -5.7633927968
 C        -8.2960232968        5.7096759460       -5.1530867534
 C        -7.7603065627        4.6043178622       -4.3260151371
 O        -7.9480735804        4.6267359660       -3.1190084828
 C        -6.8841079692        3.3736270249       -5.0432173738
 C        -6.9479411765        2.2939112815       -3.9342237429
 O        -8.0149735924        1.9898894155       -3.4064391949
 C        -5.6195315044        1.5789596385       -3.5780283087
 C        -5.8336892673        0.3663754710       -2.7178616787
 C        -5.2591407374        0.4961926070       -1.3139628037
 O        -4.7796800614        1.5057224407       -0.8888865104
 C        -5.5839417170       -0.7737906526       -0.3772864902
 C        -7.1752776925       -0.6925036009       -0.0583844065
 O        -7.9295724052       -1.6282570479       -0.1956063806
 C        -7.6721040937        0.6425936803        0.3283077595
 C        -9.0188582903        0.9368136846       -0.3464350072
 C        -9.6690227561        2.1733175932        0.2030362466
 O        -9.2502424776        2.6536725360        1.2317854292
 C       -10.9356745693        2.9013588266       -0.5345588127
 C       -11.9399642607        3.3316188246        0.5875899612
 O       -11.8838936416        4.4552794477        1.0301088213
 C       -12.9827934871        2.3539332576        1.1111818812
 C       -13.9494506480        2.8588469630        2.1622263765
 C       -13.1168058053        2.9520821475        3.5006006899
 O       -11.9389631798        3.1250149283        3.3277137571
 C       -13.7106509237        2.8167890152        4.9092601375
 C       -12.7716389941        3.3657762763        6.0731941021
 O       -13.0374740233        4.3538332903        6.6363395249
 C       -11.4132813712        2.5903478444        6.3015163172
 C       -10.3648590418        3.5240564477        6.8037625088
 C        -9.6365021000        4.2065088171        5.6408765857
 O        -9.4387442383        3.5807321018        4.6454377732
 C        -9.1113515171        5.6580162668        5.6113625335
 C       -10.1003354375        6.6463224505        4.8597603388
 O       -10.4676884193        6.3306829450        3.7417369885
 C       -10.7856242599        7.9329452773        5.4744518756
 C        -8.8107874086        6.2430895085        6.9727240164
 C        -7.8405744816        5.6431865006        4.7148110582
 C       -15.0287485172        3.5575385238        4.9634699317
 C       -13.9775050655        1.3651972505        5.0825385561
 C       -10.3712092774        4.1460761988       -1.1664281957
 C       -11.5596972624        2.0007871890       -1.5327403231
 C        -5.3325821278       -2.1709100234       -1.0475288742
 C        -4.8158941833       -0.6509244875        0.9486465079
 C        -7.5420841744        2.9520875605       -6.3974545286
 C        -5.4819664755        4.0086888310       -5.1426283667
 C       -12.1365256372        5.5052624830       -7.6624819572
 C       -12.1393859351        8.0463347567       -7.5830487223
 H       -13.7495164802        8.6437752120       -5.4243288938
 H       -12.4462406410        8.4815414246       -4.3849872303
 H       -13.9613992197        7.8727796337       -3.9008034599
 H        -9.4863488530        4.7679854858       -6.5832669223
 H       -10.3774068067        5.1295335576       -4.9938011336
 H        -8.4043398870        6.5172211095       -4.4201858426
 H        -7.5745002119        5.8961996095       -5.9623067870
 H        -5.0279198389        2.3210453011       -2.9927163089
 H        -5.1267251186        1.2874576139       -4.4816554954
 H        -5.3881877605       -0.5719017866       -3.1510359091
 H        -6.8618982395        0.0570142701       -2.5902346250
 H        -7.0031624488        1.5553383059        0.1258921276
 H        -7.9491056080        0.6460959535        1.4507895038
 H        -9.6429573466        0.0841205775       -0.2632982285
 H        -8.7747115597        1.1711744520       -1.3834129323
 H       -12.4794619267        1.4632184509        1.4868774254
 H       -13.5202531542        1.9576191933        0.2448744165
 H       -14.8199450033        2.1804032942        2.1803514441
 H       -14.3301422526        3.8386044296        2.0178413502
 H       -11.0806564574        2.1063534731        5.3964434994
 H       -11.6175189126        1.8290663037        7.0509011499
 H        -9.6529125038        3.0372280296        7.4448195172
 H       -10.9563828121        4.3200752953        7.2709454410
 H       -11.2410555318        7.4957117660        6.2951793321
 H       -11.5130658120        8.1956732527        4.7136257935
 H       -10.1408959510        8.7402527355        5.8178073286
 H        -9.7229303134        6.5032683582        7.4503758146
 H        -8.2287780083        7.1685594174        6.9218032573
 H        -8.2949884876        5.5263766470        7.6351931588
 H        -7.8277651426        5.1628258142        3.7211823231
 H        -7.1620270268        4.9322750405        5.2344258641
 H        -7.4348823634        6.5995472111        4.6501142657
 H       -15.7899277329        2.9907492476        4.3526244794
 H       -15.0475086638        4.5608057251        4.5006489467
 H       -15.3908222987        3.6399646247        5.9955865913
 H       -13.2159167641        0.6243086191        5.1762258456
 H       -14.6047448859        1.0528824598        4.2788409371
 H       -14.7273776686        1.2685279724        5.9076482636
 H        -9.5567764374        3.9633618706       -1.8534996886
 H        -9.9967386686        4.8803158854       -0.4566873959
 H       -11.1169800889        4.5915152305       -1.7225107585
 H       -12.5339543977        2.3467177574       -1.9138383312
 H       -11.7772841593        1.0464383518       -1.0885659500
 H       -10.9415688423        1.9566038521       -2.4194202172
 H        -4.3132497161       -2.3314333902       -1.3350110231
 H        -6.0034232020       -2.1688296739       -1.9154833221
 H        -5.5646917178       -3.0591046290       -0.4267278097
 H        -3.7817027320       -0.4686563541        0.7786060199
 H        -4.8353921231       -1.5637979993        1.4655966627
 H        -5.1645957268        0.0952497772        1.5092281612
 H        -6.9072311125        2.2308630474       -6.8744820194
 H        -7.6527302362        3.7748527982       -7.0843268390
 H        -8.5365160718        2.5041078565       -6.1359907155
 H        -5.4926746711        4.9503568296       -5.7228975982
 H        -4.6425114177        3.4136440454       -5.5794351355
 H        -5.0345112204        4.3339688068       -4.2197922717
 H       -11.7487288128        4.5693322685       -7.3028698909
 H       -11.5945863630        5.6631415221       -8.6030770520
 H       -13.1423461722        5.4490051629       -7.9544080344
 H       -11.4593039679        8.1205026632       -8.3949317249
 H       -11.7825734932        8.8674751106       -6.9786781231
 H       -13.2057082738        8.2176851107       -7.7650247834
 Na      -10.1417959779        4.3623515066        2.5398414433
