117

 C       -13.6497496520        7.7814340674       -4.9174739786
 C       -12.7636141192        6.6869913636       -5.4536486270
 O       -12.6842014850        5.5866410665       -4.9267196292
 C       -11.8099705957        6.9436194267       -6.6124094926
 C       -10.2306585585        6.8132633790       -6.0463124277
 O        -9.5833906751        7.8305199667       -5.9894756557
 C        -9.7211768963        5.4970993287       -5.3563266655
 C        -8.2126127130        5.3024278297       -5.3861339515
 C        -7.8165370079        4.1630535881       -4.5143536642
 O        -7.9947257616        4.2054402802       -3.3014837410
 C        -6.8533374125        2.8610551349       -5.1651758766
 C        -6.8953322340        1.6574623412       -4.1669403166
 O        -7.9704438579        1.1312833382       -3.9024560173
 C        -5.5311826522        1.1912808082       -3.6400595201
 C        -5.6118822992       -0.1078041441       -2.8267514563
 C        -5.2309586618        0.0267386124       -1.3024212663
 O        -4.5651293688        0.9485773426       -0.9051277123
 C        -5.8261718717       -0.9836329462       -0.2928727284
 C        -7.3644828323       -0.7159861353       -0.1608176531
 O        -8.2081481444       -1.5233120739       -0.4250733623
 C        -7.7949614087        0.6728810212        0.3368776254
 C        -9.0102524086        1.1744664680       -0.4253156272
 C        -9.6181531283        2.3859565238        0.1210157579
 O        -9.0873551407        3.0653021247        0.9860086597
 C       -10.9761775498        2.9602956957       -0.5303820219
 C       -11.9313281816        3.3278911833        0.6356086873
 O       -11.7759997953        4.4434752861        1.1403637766
 C       -12.9241933306        2.2706697721        1.2127698191
 C       -13.7889423321        2.8124823577        2.2857288083
 C       -13.0044959058        3.0133501688        3.6039658500
 O       -11.7925261350        3.1634761303        3.5852288187
 C       -13.6960493431        2.8828751083        4.9812009875
 C       -12.8751027241        3.7134890914        6.1371631563
 O       -13.3881409530        4.6912597940        6.6103602326
 C       -11.5079873498        3.0927828973        6.4713614134
 C       -10.5731437225        4.1888057329        6.9846279029
 C        -9.6808344903        4.6458267605        5.7618635052
 O        -9.4403743070        3.8763313946        4.8565225777
 C        -9.0794467258        6.0928476036        5.5721440260
 C       -10.0979842990        6.9485895130        4.7330304727
 O       -10.3132838122        6.5972156515        3.5848599737
 C       -10.9422037700        8.1183335234        5.3252947170
 C        -8.7667139401        6.8929763350        6.8707117316
 C        -7.8558674464        6.0236854795        4.7419294580
 C       -15.1228014964        3.4288618735        4.9936614426
 C       -13.7252898135        1.4077240873        5.2226976495
 C       -10.4818220864        4.1982192647       -1.4061171029
 C       -11.6550832831        1.8920478507       -1.4554509080
 C        -5.6437021952       -2.4642274346       -0.7318739017
 C        -5.1477634869       -0.7866684076        1.0661372735
 C        -7.5603868442        2.4406267727       -6.4742933054
 C        -5.4309246090        3.5618425442       -5.3936284878
 C       -12.0783573265        5.8625407251       -7.6366925495
 C       -11.9247503711        8.3608592314       -7.2179588916
 H       -14.1950392487        8.4407595499       -5.6122468665
 H       -13.0959183561        8.4576728014       -4.3177735897
 H       -14.4605505536        7.4373916238       -4.2202428694
 H       -10.2416348797        4.5897685544       -5.7136650640
 H       -10.0755984947        5.7192041281       -4.3447673790
 H        -7.6936586244        6.2083054873       -5.0494292598
 H        -7.8563061101        5.1776771747       -6.4447766782
 H        -5.1772931779        1.9601391937       -2.8793397172
 H        -4.9141174759        1.0675005845       -4.5595442357
 H        -4.8912190732       -0.8285182259       -3.2192354685
 H        -6.6020177285       -0.5355313251       -2.8691999885
 H        -7.0348089484        1.3968173043        0.2491266973
 H        -7.9320537323        0.6974651974        1.3478736097
 H        -9.6959107436        0.3070862201       -0.5078924787
 H        -8.7167351830        1.4036463213       -1.4814679014
 H       -12.2729248345        1.5202446692        1.6332605976
 H       -13.4706227927        1.8053672019        0.3767750946
 H       -14.6790081252        2.2096495127        2.4696499445
 H       -14.2956780819        3.8173142406        2.1233032459
 H       -11.2176769296        2.4878003640        5.5969655022
 H       -11.7309904427        2.2040338705        7.1103568175
 H        -9.8179327416        3.9057529212        7.7570440051
 H       -11.1438941117        5.0141273287        7.4663512721
 H       -11.3709860571        7.7030761235        6.2248737373
 H       -11.5526538867        8.5996291514        4.5013261608
 H       -10.1577371206        8.8599943859        5.7234559683
 H        -9.6686153846        7.2060893272        7.3613361539
 H        -8.0830020997        7.7684578467        6.8053833087
 H        -8.3435116842        6.2700915899        7.6875903608
 H        -7.9427101253        5.4215980735        3.7747692967
 H        -6.9842906907        5.6429677825        5.3484870678
 H        -7.4541124345        6.9608270145        4.4764148916
 H       -15.9226405429        2.7204454969        4.8842668352
 H       -15.2637064407        4.2026354623        4.2736274424
 H       -15.3480790667        3.9006327358        5.9099886202
 H       -12.8152177916        0.9211837760        5.4572326291
 H       -14.0419690693        1.0131230398        4.2712940372
 H       -14.4637134255        1.0845776061        5.9904473004
 H        -9.6588479226        3.9538741128       -2.1419591042
 H       -10.0535792986        4.9983524311       -0.7074141629
 H       -11.2903789215        4.7020253101       -1.9328279511
 H       -12.5961393188        2.3646428272       -1.8534772572
 H       -11.8981764014        0.9771410560       -0.9235690775
 H       -11.0087380912        1.5032239801       -2.2624948001
 H        -4.6239169863       -2.7768978420       -0.8851844718
 H        -6.0724177750       -2.5625908036       -1.7352581442
 H        -6.1856247930       -3.1733166093       -0.1101536494
 H        -4.2081941762       -1.4931096978        1.1318275838
 H        -5.8966014666       -1.0433672952        1.9367731750
 H        -4.7614358533        0.2277313864        1.2876404708
 H        -7.0697667846        1.6059907296       -6.9399574952
 H        -7.6753225024        3.2512036504       -7.1732536606
 H        -8.5602114705        2.0898373716       -6.1304305078
 H        -5.4665736410        4.2751478038       -6.2459143434
 H        -4.5844452083        2.8844478322       -5.7247542419
 H        -5.0033730661        4.0209698444       -4.5145474045
 H       -12.1141219804        4.9282488636       -7.1010806030
 H       -11.3876304850        5.8714943795       -8.4971293939
 H       -13.0688238291        5.9628339576       -8.0008932447
 H       -11.6257914110        8.4866690309       -8.2329532926
 H       -11.3871974743        8.9471164321       -6.4938414770
 H       -12.9428469989        8.8208196803       -7.2396127643
 Na       -9.9772215663        4.4936803338        2.6737924689
