117

 C       -13.6263996297        7.7087877653       -4.9520990576
 C       -12.5902347311        6.6411957143       -5.3511453143
 O       -12.5849375766        5.5633895979       -4.7495330246
 C       -11.5927539763        6.9468055233       -6.4785195178
 C       -10.1771807681        6.6863628325       -5.9094793681
 O        -9.3085189536        7.5487584643       -6.0957433567
 C        -9.7861475510        5.3010633270       -5.2328668128
 C        -8.3101830133        5.0734541529       -5.4140531627
 C        -7.8649162170        3.8671168613       -4.6161358318
 O        -8.0701896432        3.8461537809       -3.4154825037
 C        -6.8747106242        2.7074845879       -5.2085011541
 C        -6.8505652260        1.5074036356       -4.2776505250
 O        -7.8976909978        1.2229493102       -3.6910570136
 C        -5.4972691713        0.9633806581       -3.7079838952
 C        -5.8503496518       -0.2258722015       -2.7661878971
 C        -5.3212316853       -0.0141969075       -1.3228776224
 O        -4.6126206683        0.9032490905       -1.0204187538
 C        -5.8900196571       -1.0627741206       -0.3014560840
 C        -7.3939193266       -0.6219468350       -0.3329069859
 O        -8.2721842489       -1.3464156625       -0.7055349341
 C        -7.7195785816        0.8282231918        0.1201296563
 C        -9.0273215110        1.3216997162       -0.5604515363
 C        -9.6397133744        2.5273785534        0.0990172795
 O        -9.2292972878        2.9206953592        1.1740231064
 C       -10.9983949608        3.0133121426       -0.5684742780
 C       -12.0424151636        3.4248608897        0.5590146003
 O       -11.9291602639        4.5437108984        1.0693074017
 C       -13.0753779974        2.3589340192        1.0239598830
 C       -13.6614315788        2.8199449342        2.3577163826
 C       -12.8750824581        2.8798946394        3.6673293004
 O       -11.6601507039        3.0234718918        3.6299770290
 C       -13.5720905790        2.8389446890        5.0866155910
 C       -12.8182214227        3.8862723879        6.0816356901
 O       -13.2949966660        4.9602829161        6.2298254876
 C       -11.5515920309        3.4171695625        6.7667492875
 C       -10.6388801521        4.5822287519        7.0504364466
 C        -9.7302929977        4.8861532000        5.7998082589
 O        -9.5662788211        3.9952077985        4.9772644880
 C        -9.0843972600        6.3215877573        5.5912125841
 C       -10.1871593755        7.0278381789        4.7152025863
 O       -10.3822478632        6.6464641363        3.5817534937
 C       -10.9148677455        8.2435981597        5.3097975368
 C        -8.9072289221        6.9615804502        6.9968834919
 C        -7.7627105343        6.1965345677        4.8406568595
 C       -14.9653561030        3.3621694692        4.9480986490
 C       -13.5669631416        1.4207891092        5.6194942435
 C       -10.6651045179        4.3171422266       -1.4231300455
 C       -11.6338569840        1.9070671380       -1.3834451186
 C        -5.7822806363       -2.5827007379       -0.7313807422
 C        -5.2543653473       -0.8767118551        1.0969700146
 C        -7.5234414650        2.2401038295       -6.4952518046
 C        -5.5587411400        3.2839142351       -5.6889626305
 C       -11.8075718197        5.8458206302       -7.5331423273
 C       -11.7244260055        8.4633934902       -6.9079557447
 H       -14.3360571476        7.7533370003       -5.7938899593
 H       -13.3941601647        8.7485047430       -4.7940052030
 H       -14.2409031813        7.4573666391       -4.1095474298
 H       -10.4010578252        4.4656396752       -5.7150296587
 H       -10.0514899638        5.2396284131       -4.1801241286
 H        -7.8020486744        5.9995331298       -5.2149821452
 H        -8.0467221721        4.9715420922       -6.4802214491
 H        -5.1459261914        1.8674927861       -3.2425918228
 H        -4.7747925209        0.6494463412       -4.4826476437
 H        -5.4667409406       -1.1246775873       -3.2058942303
 H        -6.9742934518       -0.2883401516       -2.7354546483
 H        -6.9442412530        1.5674380677       -0.1681598087
 H        -7.7389227654        0.9339691868        1.2642676872
 H        -9.7471255719        0.4787412203       -0.4717557897
 H        -8.8786401419        1.3463623338       -1.6195587012
 H       -12.5410613997        1.4441174767        1.0419074918
 H       -13.8708534929        2.3530691805        0.2687497601
 H       -14.4963718640        2.2528725516        2.6134817357
 H       -14.1856489656        3.8540604138        2.1817690853
 H       -11.0931876006        2.6096394106        6.2110371982
 H       -11.8534855912        2.8436374401        7.6247199536
 H       -10.0786680264        4.3746726950        7.9736176676
 H       -11.1329234083        5.5024999234        7.2740249649
 H       -11.6079903345        7.9735341401        6.0650518882
 H       -11.3535716843        8.6709648484        4.4291245879
 H       -10.1474276018        8.9792234636        5.5923940611
 H        -9.7679646603        6.7877690883        7.6123133425
 H        -8.9895048656        8.0056493633        7.0133811393
 H        -7.9826467484        6.7357428717        7.5669822643
 H        -7.8723518921        6.3011934549        3.7565014656
 H        -7.0457407188        5.5202300926        5.2290646886
 H        -7.2369284210        7.1151950013        5.0364263814
 H       -15.5158290909        2.8016976966        4.1702409972
 H       -14.9568571155        4.4463045771        4.5785258399
 H       -15.6218465731        3.3970431882        5.8160785983
 H       -12.6620620594        0.8668715100        5.4262401576
 H       -14.3775129226        0.7824039227        5.1583930188
 H       -13.7308653150        1.5216524262        6.6870630355
 H        -9.8150310493        4.1478973785       -2.0368963362
 H       -10.4947792414        5.1878437062       -0.7885149353
 H       -11.4526944661        4.5851449470       -2.0125273932
 H       -12.5681221050        2.2471235766       -1.8131557342
 H       -11.6615338113        0.9948995255       -0.8688410842
 H       -11.0151350941        1.7440973588       -2.2635371032
 H        -4.7754672946       -2.8936046004       -1.0955610194
 H        -6.3848944635       -2.7838650413       -1.6181013402
 H        -6.0914085103       -3.2158696765        0.0494077488
 H        -4.1948842186       -0.8178797986        0.9507188531
 H        -5.4821873153       -1.6741987723        1.7635324567
 H        -5.5570813699       -0.0361302104        1.5611720179
 H        -6.9815672272        1.4563644276       -7.0282887116
 H        -7.4075898384        3.1272351307       -7.1197914459
 H        -8.5770647445        2.0351355073       -6.3756856846
 H        -5.6845489939        4.2530844883       -6.1618260988
 H        -5.1076739746        2.5926710381       -6.4340482332
 H        -4.8827779145        3.4773650722       -4.8785355055
 H       -11.8997043586        4.9453016090       -6.9633925100
 H       -10.9423714977        5.8814143187       -8.2423924145
 H       -12.7038527761        5.9041276408       -8.1524973346
 H       -10.9507458324        8.6392042741       -7.7068075865
 H       -11.6387869801        9.0628404292       -6.0269113404
 H       -12.6329636568        8.7570873008       -7.3801522350
 Na       -9.9723302861        4.4867458104        2.5502125346
