117

 C       -13.6761047076        7.3711487977       -5.0404321544
 C       -12.3532178616        6.6489482737       -5.0768238060
 O       -12.0621466797        5.9269685594       -4.1345264295
 C       -11.4205825971        6.9096332228       -6.2797182540
 C        -9.9087215832        6.5006268670       -5.8423864855
 O        -9.0622709429        7.3464463597       -5.9007759601
 C        -9.5964985386        5.0343142418       -5.4300510631
 C        -8.0913177027        4.6827685676       -5.3422810180
 C        -7.8205501168        3.3779165477       -4.5391192704
 O        -8.2441593356        3.2744836976       -3.4454989576
 C        -6.8792507913        2.1631308138       -5.1146137232
 C        -6.7522053456        0.9977184082       -4.1376537970
 O        -7.6266518290        0.7628517135       -3.3381341927
 C        -5.4556947653        0.1334799650       -4.2162553322
 C        -5.3895902672       -0.9410585287       -3.1189453274
 C        -5.4071905903       -0.2716646411       -1.7089746999
 O        -4.8209039733        0.7765212334       -1.4785720839
 C        -6.0848254824       -1.0068740654       -0.4679988315
 C        -7.5427289968       -0.4376611698       -0.4810345313
 O        -8.4854558333       -1.1426079126       -0.7626169436
 C        -7.7738493548        1.0460757464       -0.1702956803
 C        -9.2076863045        1.4803900495       -0.6071489139
 C        -9.7932673939        2.6511089051        0.1692892779
 O        -9.3360706811        3.0043532472        1.2696276426
 C       -11.0263727840        3.3147824319       -0.4437080253
 C       -12.0334112533        3.6399727959        0.6995379538
 O       -11.9515928786        4.7083628968        1.3012879648
 C       -13.2745453126        2.6886214929        1.0418210810
 C       -13.8826990584        2.8909225482        2.4469130526
 C       -12.9654494396        2.6795593099        3.6931162409
 O       -11.7810302877        2.3089208784        3.5922851048
 C       -13.4636623782        2.9411813983        5.1499368422
 C       -12.4743417263        4.0692287016        5.7834744927
 O       -12.5770318379        5.1285477113        5.2069785406
 C       -11.4427580133        3.8160985778        6.8666497470
 C       -10.6105183498        5.0637986125        7.1181384743
 C        -9.7690371301        5.2596687915        5.8866007128
 O        -9.4876831391        4.3355845334        5.1598891096
 C        -9.2978593149        6.7187418613        5.5641347953
 C       -10.3825217531        7.2587931526        4.5431455819
 O       -10.6107343883        6.6264041188        3.5509040180
 C       -10.9124089732        8.7246511740        4.6317075743
 C        -9.1055919904        7.4612552021        6.9006907599
 C        -7.9308339431        6.5837987046        4.8725826536
 C       -14.9114720242        3.4712325777        5.1502659336
 C       -13.3487353146        1.6168588430        5.9529401466
 C       -10.6965957658        4.6601424140       -1.0762245957
 C       -11.7172766012        2.3830604664       -1.4524208992
 C        -6.0576123158       -2.5851262139       -0.5299422400
 C        -5.4052134002       -0.5642850085        0.8833686874
 C        -7.7722023960        1.7160308806       -6.3083347403
 C        -5.6421352496        2.7448448586       -5.7832998658
 C       -11.8934707967        6.1033458751       -7.5269971194
 C       -11.3648540535        8.4970725702       -6.5928679524
 H       -14.2657841561        7.2016419506       -5.9524481060
 H       -13.7067844636        8.4583923184       -5.0300554654
 H       -14.2769599322        7.0078371923       -4.1958729167
 H       -10.1177597522        4.3136410330       -6.1141895931
 H       -10.0540104749        4.7274955328       -4.5177300752
 H        -7.5800469177        5.5936794398       -4.9657526150
 H        -7.7305057686        4.4620903190       -6.3719267558
 H        -4.6110337823        0.8497315618       -4.1771419767
 H        -5.1936878923       -0.3376600716       -5.2333930474
 H        -4.4676037714       -1.4837510224       -3.2501915444
 H        -6.2172702961       -1.6761162078       -3.2303533232
 H        -7.0730273916        1.7000593872       -0.6294843861
 H        -7.7888663521        1.1769693380        0.9116760048
 H        -9.8752448307        0.6028821472       -0.5746944902
 H        -9.2651939200        1.6018721817       -1.6817407102
 H       -12.9437484822        1.6542441210        0.8789478730
 H       -14.0966084777        2.9615414426        0.3518469112
 H       -14.7814574352        2.3865066127        2.5671149709
 H       -14.1120000792        3.9890464797        2.5228818788
 H       -10.7969803897        3.0050027673        6.4215932154
 H       -12.0246260205        3.4249840871        7.7300155376
 H        -9.8954322598        4.9474743127        7.9741945893
 H       -11.1157940399        6.0236245524        7.2510866073
 H       -11.5705785373        8.8297923659        5.4813346037
 H       -11.6655675534        8.8327891783        3.7900079661
 H       -10.0525806826        9.4505144529        4.4926532825
 H       -10.0425868392        7.7011497302        7.3941686901
 H        -8.6434916818        8.3768143564        6.6088255266
 H        -8.4402768513        7.0726523804        7.7001497223
 H        -8.0512793974        6.1329189514        3.8293366098
 H        -7.2419852264        5.8503695468        5.3592550136
 H        -7.4617739210        7.5588041188        4.7839124566
 H       -15.4910589814        2.7953453948        4.5620215303
 H       -15.0426959394        4.4821360003        4.6758473441
 H       -15.3393833850        3.4850153617        6.1315406282
 H       -12.3925109582        1.1431314746        5.8469116339
 H       -14.1798894562        0.9727666224        5.5538948187
 H       -13.6021553427        1.8018446649        6.9617621026
 H        -9.7829258636        4.5605165915       -1.6732837831
 H       -10.3739886633        5.2898143464       -0.1923214812
 H       -11.4468969357        5.1347982429       -1.6370909887
 H       -12.6309520051        2.8897808184       -1.7875348972
 H       -12.0968821942        1.4939872723       -0.9918387369
 H       -11.0386864669        2.2095810940       -2.2951547959
 H        -5.0220021488       -2.9630402328       -0.7568044682
 H        -6.7775327421       -2.9162867364       -1.2785280413
 H        -6.3569550340       -3.0730500159        0.3492857227
 H        -4.4975378260       -1.1748078824        1.1459419132
 H        -6.1011652925       -0.6528376575        1.8068642834
 H        -5.0827910242        0.5406919354        0.7201357401
 H        -7.2152513652        0.9113634627       -6.7973269411
 H        -7.9677966182        2.5489807870       -6.9824792230
 H        -8.6942936201        1.3112414178       -5.9614937474
 H        -5.9761451912        3.7247386860       -6.1693654261
 H        -5.1852391584        2.0906282555       -6.5838639548
 H        -4.8718398994        2.8544740641       -4.9953757738
 H       -11.8687453282        5.1044420399       -7.2238926978
 H       -11.1770763764        6.1667112126       -8.3449289672
 H       -12.8847057057        6.4242898006       -7.8342052817
 H       -10.4049564928        8.7277246571       -7.0618608195
 H       -11.1727234346        9.0982975746       -5.7179657245
 H       -12.2255578803        8.8471642207       -7.1339289781
 Na      -10.3404183838        4.3004699489        2.8418991512
