117

 C       -13.6249579328        4.3947230343       -2.0398328992
 C       -13.0808313458        3.2224781934       -1.2129853055
 O       -12.5872429734        2.2290668123       -1.7768621964
 C       -13.2541774939        3.1199557250        0.3760574179
 C       -12.1031388914        2.1928271220        1.1706335473
 O       -11.4880745154        1.2647930579        0.6032244201
 C       -12.1031281597        2.1737087352        2.7521143717
 C       -10.8957751624        1.2650665423        3.0973549169
 C       -10.8909434717       -0.1744030405        2.4460519879
 O       -11.8408455374       -0.7785791922        2.1065185285
 C        -9.3602482891       -0.8073927277        2.3417982749
 C        -9.3012117798       -1.0344584138        0.6669811136
 O        -8.7661172045       -0.2704489251       -0.0175662421
 C       -10.0845505279       -2.2628733039        0.0127810958
 C        -9.7523646199       -2.8525128308       -1.3679197272
 C       -10.2176030587       -2.1507097121       -2.6889856629
 O       -11.0329302946       -1.2115724311       -2.5571433181
 C        -9.6005470310       -2.5170832407       -4.0365657587
 C        -8.1319908789       -1.6539821718       -4.1103090495
 O        -7.2135456332       -1.9739381767       -3.4072882301
 C        -7.9578343559       -0.4764522938       -5.0866885577
 C        -7.0610036719        0.7027807829       -4.3959994460
 C        -7.9252046779        1.7026351003       -3.6967064519
 O        -9.1460129284        1.5532553943       -3.6132064539
 C        -7.3575509507        2.9629059437       -3.1091119005
 C        -7.8094829018        3.3865112721       -1.6576189094
 O        -8.5320006722        2.6171616539       -1.0262206018
 C        -7.2850613257        4.6317568238       -0.9498874154
 C        -7.9230680743        4.9979364579        0.3897553774
 C        -6.8717031809        5.9329844380        1.0816087237
 O        -5.6724953921        5.6193354658        0.9452340563
 C        -7.2266293488        7.2828878525        1.7533858768
 C        -8.3822363297        7.9771761334        1.1280813091
 O        -9.0800542925        7.4148562936        0.2843901970
 C        -8.6487481260        9.4787751549        1.4691917520
 C       -10.0962716391        9.8688905468        1.1169571973
 C       -10.6803853101       10.7564800442        2.2604801441
 O       -10.3019761705       10.7058452458        3.3898898833
 C       -11.9076665430       11.8394463004        2.0247269404
 C       -13.2270449517       10.9204562274        1.8583421949
 O       -13.1388437291        9.8407385434        1.3399036225
 C       -14.4613237118       11.7664395698        2.2353896029
 C       -11.9016647302       12.8177105295        3.1777107664
 C       -11.6871015807       12.5263271288        0.6725876020
 C        -7.4639137766        7.0997364848        3.3036898687
 C        -5.9447310790        8.2083955389        1.5278202122
 C        -5.8541744859        2.9365027953       -3.1764331669
 C        -7.8977417391        4.2257258678       -4.0263404526
 C        -9.1366707299       -3.9389782680       -4.3620175936
 C       -10.6748143016       -2.1002309237       -5.1092506945
 C        -8.2148217164        0.0811561934        2.8703661084
 C        -9.3648762735       -2.0458356102        3.2647026530
 C       -13.0465676666        4.5086778808        1.0785044048
 C       -14.6215985659        2.3326389088        0.7470781140
 H       -14.2797143022        5.0761236845       -1.5173709505
 H       -14.1517280227        3.8186341005       -2.8435140592
 H       -12.8440843619        4.8529290645       -2.5968644441
 H       -13.1344491114        1.9625084062        3.0780947766
 H       -11.8107178780        3.1985508109        3.2192021974
 H       -10.7215984304        1.2518776797        4.1404563455
 H       -10.0656022526        1.8720397338        2.5788251853
 H       -11.2295172905       -1.9842126227       -0.0817150409
 H       -10.0026336998       -3.0947691075        0.7051838174
 H       -10.1074094485       -3.8885823837       -1.4772495376
 H        -8.6742687105       -2.9672198942       -1.4252300259
 H        -9.0289659406       -0.0417125645       -5.3729412661
 H        -7.4281572904       -0.7654520914       -6.0224115613
 H        -6.4532731212        1.1907973963       -5.2336687813
 H        -6.3789441751        0.1302036855       -3.6552631615
 H        -7.1308300498        5.3680619294       -1.6714235203
 H        -6.2997351811        4.4913918348       -0.6966774865
 H        -8.2708531236        4.1453122201        1.0246386332
 H        -8.8606293532        5.4789464208        0.0888594640
 H        -8.0873421588        9.9907895911        0.6331238903
 H        -8.3412395674        9.7377269924        2.4751185796
 H       -10.5864139218        8.9697499549        0.8569204380
 H       -10.2262003887       10.5019576913        0.1905923713
 H       -15.5217447243       11.3258213156        2.1317271616
 H       -14.3084434494       12.6054954676        1.7292629272
 H       -14.4329647576       12.0451927017        3.3267773297
 H       -12.5936094875       13.6788265018        2.9990177766
 H       -10.8378303264       13.2628053703        3.2215336271
 H       -12.2104926806       12.3490707750        4.1038173230
 H       -12.5893568510       13.0876696530        0.3229638894
 H       -11.3863153881       11.7521550393       -0.1601588827
 H       -10.7023622321       13.1438595043        0.7876504633
 H        -7.6507890047        7.9418294203        3.9225121350
 H        -6.6159023535        6.5490071335        3.6229401785
 H        -8.3245460958        6.4988570047        3.3545300378
 H        -5.8078546700        8.9484157441        2.3892012451
 H        -6.1327656456        8.6916846848        0.5319826115
 H        -5.1305057288        7.5555944514        1.2993640503
 H        -5.4460275832        3.7555058536       -2.4866782469
 H        -5.3471220688        3.0484206873       -4.1119567560
 H        -5.5711595275        1.9151460129       -2.7978441029
 H        -7.7991055716        5.1887419987       -3.4433801296
 H        -8.9427737516        4.0514541079       -4.1917251821
 H        -7.3923779644        4.4191895528       -5.0024620994
 H        -8.6133167314       -4.3114747242       -3.4743492258
 H        -8.6052362503       -3.9651732790       -5.3928381219
 H        -9.9155184632       -4.7433578440       -4.5097182270
 H       -10.9856244190       -2.7927777666       -5.8658421585
 H       -10.6393819347       -1.1049603129       -5.5620561240
 H       -11.6109200194       -1.8846116574       -4.6320477337
 H        -8.1592180816        1.0105221915        2.3032112944
 H        -7.2412692555       -0.3588042227        2.7921587810
 H        -8.2517720453        0.1607978566        3.9514056951
 H        -9.5943729009       -1.6510636812        4.2884318886
 H        -8.3778715462       -2.2806322133        3.3473551196
 H       -10.1627984682       -2.8393439872        3.0939067160
 H       -12.1074311750        4.7873194179        0.7199654140
 H       -13.0951250538        4.3354716542        2.1601677417
 H       -13.8406969237        5.2033377476        0.8207410357
 H       -14.8827717919        2.2355005017        1.7680582893
 H       -14.7018046624        1.4456189466        0.2014040225
 H       -15.4866804736        2.9400996866        0.3822180576
 Na      -10.3384641920        1.0141630083       -1.3772784886
