117

 C       -13.5987561488        6.7191299456       -4.8927697726
 C       -12.0720369654        6.7486765784       -4.7380269366
 O       -11.5667018504        6.5628590412       -3.6556021328
 C       -11.0646114127        6.9566711355       -5.9481676337
 C        -9.6350927844        6.3594092062       -5.6712144228
 O        -8.6551062661        7.0922337510       -5.4902179403
 C        -9.5961788178        4.8614677732       -5.2698792537
 C        -8.3924074259        4.0389798614       -5.6185133185
 C        -8.1516482594        2.7992572168       -4.6934735834
 O        -8.6398001997        2.7488435312       -3.5680948975
 C        -7.2155045492        1.5984903722       -5.2799332073
 C        -6.9112110229        0.4492651237       -4.1667396049
 O        -7.7218820838        0.3145211383       -3.2275542525
 C        -5.6506049949       -0.3738295052       -4.2224638802
 C        -5.6081250803       -1.1852605558       -2.9594480427
 C        -5.5250445983       -0.3520746781       -1.7147844315
 O        -4.9560494082        0.7345770521       -1.6460375173
 C        -6.2093375126       -0.9233307962       -0.3766649150
 C        -7.7419730008       -0.3273772219       -0.3284628439
 O        -8.6426920190       -1.0713462898       -0.6287284798
 C        -7.9118501481        1.1832800189       -0.0473417485
 C        -9.2690059743        1.7240128525       -0.6281657539
 C        -9.9185494997        2.8156110753        0.2361329942
 O        -9.3971192133        3.1787377477        1.2438648957
 C       -11.1586038276        3.5375967584       -0.2867314442
 C       -12.2191142203        3.7222479666        0.8202029474
 O       -12.2414858100        4.7211970249        1.5176548634
 C       -13.3126881062        2.6541762999        1.0835842824
 C       -13.9913497739        2.7703514745        2.4845173751
 C       -12.9422508448        2.6244374043        3.4976445954
 O       -11.8201454249        2.2809862240        3.2170371470
 C       -13.3218742901        3.0593432681        5.0935446769
 C       -12.3393325141        4.2618074980        5.4891363398
 O       -12.3146902748        5.2125750175        4.7221558752
 C       -11.6024029183        4.1769080023        6.7974577808
 C       -10.7352702496        5.4200800551        7.0235568907
 C        -9.7453376843        5.6492257091        5.8186896374
 O        -9.2832149096        4.6850063146        5.2596535065
 C        -9.2378828110        7.0518658677        5.2792401971
 C       -10.1216170541        7.3725867034        3.9513525511
 O       -10.1408802494        6.6166151626        2.9964770800
 C       -10.9679326608        8.6664428756        3.9143697115
 C        -9.4238398664        8.0564518798        6.3854183124
 C        -7.6753146078        6.8946496841        4.9177183973
 C       -14.7552254674        3.5593461664        5.1992044185
 C       -13.1369288652        1.7827757649        6.0004973548
 C       -10.5204949663        4.9230441059       -0.6247024151
 C       -11.7482046726        2.9529989657       -1.5867454837
 C        -6.2196987333       -2.4896328264       -0.3180848060
 C        -5.4232638863       -0.3524817352        0.8091536513
 C        -7.9390269085        0.8314423271       -6.4982978522
 C        -5.7972851248        2.2624966636       -5.7203879287
 C       -11.6229920263        6.3341233858       -7.1918803297
 C       -10.8324102662        8.4551495623       -6.1256670130
 H       -13.8849490857        5.7666589642       -5.3355884044
 H       -14.0156972529        7.4776609576       -5.4787632457
 H       -14.1307947569        6.7570246319       -3.8968719181
 H       -10.5518754639        4.3372171528       -5.5712959880
 H        -9.4732605640        4.7481649369       -4.2100807774
 H        -7.5742517962        4.7425577175       -5.4606056058
 H        -8.3487024747        3.7541879008       -6.6940428723
 H        -4.8118660395        0.3000300904       -4.2708060739
 H        -5.6578621504       -1.0775307967       -5.1008633657
 H        -4.7630121865       -1.8363836778       -2.9264918891
 H        -6.5097518862       -1.8355683979       -2.9364601192
 H        -7.0288372001        1.7097528277       -0.3570472799
 H        -7.8607546758        1.3767075435        0.9561200758
 H        -9.9910929537        0.8738056021       -0.7829452712
 H        -9.1183149767        2.0317504073       -1.6778591462
 H       -13.0238641839        1.6576323362        0.8703813896
 H       -14.0413116089        2.7765301230        0.3126510202
 H       -14.7249053789        2.0399691887        2.5954904055
 H       -14.3756828074        3.8658172851        2.5557956274
 H       -10.9697507486        3.2749228447        6.7269495309
 H       -12.4595844096        4.1861467855        7.4698820148
 H        -9.9973092532        5.3305971117        7.8456147716
 H       -11.3175580342        6.3155205244        7.1215631381
 H       -11.6610275617        8.4453740039        4.6902345724
 H       -11.4628285197        8.8599607245        2.9669618938
 H       -10.4240311014        9.4752063539        4.3826611393
 H       -10.4316760526        8.2095958338        6.6006769173
 H        -9.1333400762        9.0499069570        6.0133397390
 H        -8.8289437552        7.6784172432        7.2186385728
 H        -7.5827836144        6.2999763336        3.9825099126
 H        -7.1545224255        6.3949520036        5.7590920626
 H        -7.2613850222        7.8563630424        4.7990550126
 H       -15.3779969809        3.0547867280        4.4025279686
 H       -14.8216763610        4.6138907996        5.0878408277
 H       -15.1253734275        3.2693774163        6.1725107887
 H       -12.1664512793        1.3653008378        5.8814193576
 H       -13.8552978042        1.0777414453        5.5542343542
 H       -13.3579885030        1.9661433027        7.0699674841
 H        -9.6746792776        4.7736893697       -1.3180775876
 H       -10.1144787760        5.2836287996        0.3029868870
 H       -11.2543410167        5.6300837146       -1.0703064153
 H       -12.5579714413        3.6096413505       -1.9510731911
 H       -11.9835105456        1.9322750968       -1.4141953242
 H       -11.0013660280        2.9281612789       -2.3906466586
 H        -5.2166911717       -2.8740766558       -0.5421806689
 H        -6.8097599142       -2.8130165526       -1.1769304000
 H        -6.6118543919       -2.8625652003        0.5988831342
 H        -4.5207518810       -0.9861067294        0.9560284693
 H        -5.9947114670       -0.4273526365        1.7267342598
 H        -5.1716190692        0.6381484079        0.6181669177
 H        -7.2687779246        0.0280174123       -6.7904398836
 H        -8.0877658288        1.4054070243       -7.3996791875
 H        -8.9000600480        0.3781511455       -6.1632629994
 H        -5.9646546739        3.0345225646       -6.4270241914
 H        -5.2019502962        1.4849801736       -6.1772618712
 H        -5.3864190335        2.6998276696       -4.8769983327
 H       -11.6695710404        5.2808985780       -6.9858049418
 H       -11.0090075542        6.6483397673       -8.0682769320
 H       -12.6336038012        6.6601820886       -7.3792461645
 H       -10.1993783417        8.5793164817       -6.9129268710
 H       -10.5805869418        8.8852582365       -5.1806836120
 H       -11.7736329948        8.9839475407       -6.4753629165
 Na      -10.3889959350        4.4535730672        3.0674071583
