117

 C       -13.5261987716        6.7776914878       -4.8892094882
 C       -12.0625078355        6.6417944887       -4.7259042593
 O       -11.5615409027        6.4152092836       -3.6470783228
 C       -11.0849405395        6.9485989782       -6.0427584681
 C        -9.6460450124        6.3537775300       -5.5389293485
 O        -8.7235978233        7.0450000447       -5.4872238682
 C        -9.6046540616        4.8612435920       -5.1566941505
 C        -8.3228786358        4.0029358748       -5.5540669884
 C        -8.0984804948        2.8154271556       -4.6965232047
 O        -8.5637953993        2.7673202460       -3.6068929261
 C        -7.1512361208        1.6819271053       -5.2140085904
 C        -6.9039657673        0.5933051104       -4.1262065144
 O        -7.6480601039        0.3916440105       -3.1858078595
 C        -5.6491137032       -0.3200398954       -4.2764526187
 C        -5.4806145002       -1.2329224549       -3.0367484061
 C        -5.4849800981       -0.3825279622       -1.7258664060
 O        -4.9866038082        0.7460841581       -1.7307407988
 C        -6.2163083726       -0.9107094334       -0.4168395801
 C        -7.7028515382       -0.3595265014       -0.4296723240
 O        -8.6489244151       -1.1062986576       -0.6276879613
 C        -7.9135154289        1.1140069259       -0.0653625172
 C        -9.1836834393        1.7414288197       -0.6273453285
 C        -9.8868127575        2.8088865688        0.2220037656
 O        -9.4491810724        3.1196195749        1.3477436346
 C       -11.1768014333        3.5600584435       -0.3437134641
 C       -12.2737574308        3.7218922000        0.7609037650
 O       -12.1888311824        4.6626729705        1.5361731680
 C       -13.3687093213        2.6671641512        0.9474695123
 C       -14.0139882704        2.8603511975        2.3916980787
 C       -12.9993728369        2.6885879612        3.5357283890
 O       -11.8212727888        2.3729429487        3.3448243556
 C       -13.3878698371        2.9623221368        5.0674590561
 C       -12.3401218702        4.1839741343        5.5592173002
 O       -12.2089199173        5.0960722639        4.7506956066
 C       -11.5120884779        4.1956230693        6.8694780675
 C       -10.6086374318        5.4570233103        7.0550240181
 C        -9.6890137324        5.5742674612        5.7947243019
 O        -9.3283007240        4.5475754303        5.2521511622
 C        -9.2901673030        6.9987508484        5.2872684036
 C       -10.2082015986        7.3012806021        4.0724347858
 O       -10.3121735499        6.6321093001        3.0792034162
 C       -10.9097722235        8.6490500885        3.9903715147
 C        -9.4859878229        8.0594146076        6.4099328305
 C        -7.8138338985        6.7973547657        4.9070239388
 C       -14.8108891552        3.6251427780        5.2790441432
 C       -13.0910811066        1.7593086886        5.9898540613
 C       -10.6078757744        5.0427566109       -0.7142746670
 C       -11.7628283327        2.9064308966       -1.6571885714
 C        -6.2640985237       -2.4260498206       -0.3627477651
 C        -5.3995408920       -0.3343194254        0.7969425671
 C        -7.9357868170        1.0417712276       -6.4014033234
 C        -5.8487439323        2.3323887876       -5.6653120445
 C       -11.6481737976        6.3574183210       -7.3952482288
 C       -10.9419831321        8.4950841372       -6.3098625009
 H       -13.9708400424        5.9216741483       -5.3596473967
 H       -13.8669567390        7.6420647277       -5.4165978484
 H       -13.9986610864        6.8128158976       -3.8811850711
 H       -10.4555265546        4.3966949738       -5.6672929417
 H        -9.6951377926        4.5858951745       -4.0766039773
 H        -7.4722661629        4.6727920504       -5.4916133732
 H        -8.4178602547        3.6917675151       -6.5853813480
 H        -4.7550539537        0.2437321240       -4.3627922253
 H        -5.7439554329       -0.9044205860       -5.1619242172
 H        -4.4858575994       -1.7217044169       -3.0700930144
 H        -6.2331518133       -2.0296450069       -3.0091816704
 H        -7.0181478669        1.6941944362       -0.2511066421
 H        -7.9267908320        1.1919434778        1.0917900422
 H        -9.8747330669        0.9692380172       -1.0060401953
 H        -8.9007924560        2.2251824950       -1.6061189298
 H       -12.8692677597        1.6818479900        0.8550242985
 H       -14.0884941643        2.5862640531        0.1342388950
 H       -14.7552808548        2.0563608289        2.5457529649
 H       -14.4597867308        3.9146690014        2.4095010120
 H       -10.8171657564        3.3934297270        6.6711592723
 H       -12.1976207052        4.1215791439        7.6865709716
 H        -9.9621642878        5.3114273733        7.9122385684
 H       -11.1373283743        6.3834503283        7.0898778605
 H       -11.7393971438        8.5410284403        4.6302634761
 H       -11.2822770043        8.8466307252        2.9683503522
 H       -10.3386537758        9.4219082788        4.4591707542
 H       -10.4927208388        8.5319735089        6.3718668328
 H        -8.8830690083        8.9000573381        6.1527460763
 H        -9.2568623192        7.5858540126        7.4122862707
 H        -7.8480803889        6.2758475132        3.9098881812
 H        -7.1733110912        6.2711290341        5.6065828381
 H        -7.4498532740        7.7736062585        4.8068190860
 H       -15.5504819616        3.0770424600        4.7642931788
 H       -14.7526348459        4.6242301331        4.8078276447
 H       -15.0537450232        3.6957952488        6.3062063150
 H       -12.0450225254        1.4873089322        5.9398615129
 H       -13.6953647928        0.9197708929        5.5707828696
 H       -13.3414623041        1.9863368143        6.9790516118
 H        -9.7008328986        4.9977182641       -1.3798680590
 H       -10.2428171720        5.4538382405        0.3007118159
 H       -11.3625719905        5.6591581668       -1.1813167805
 H       -12.5952912972        3.5057887259       -2.0392416567
 H       -11.8962088113        1.8239749701       -1.5362726909
 H       -10.9676494018        2.9712215390       -2.4326722303
 H        -5.2756097986       -2.8155819679       -0.7250638398
 H        -7.0160224170       -2.8440252268       -1.0296519950
 H        -6.4499798087       -2.7221246283        0.6388933918
 H        -4.6156453728       -0.9279026956        0.9586224171
 H        -5.9874103274       -0.3115908605        1.6158605507
 H        -5.0453781952        0.6805606200        0.5746701529
 H        -7.3440957544        0.2719798960       -6.9247182829
 H        -8.1123029578        1.8144858962       -7.1637394201
 H        -8.8408223130        0.6148318900       -6.0552127667
 H        -6.1081792420        3.2141572246       -6.2344737019
 H        -5.3644614878        1.6588749905       -6.3626759251
 H        -5.2740032222        2.6125995758       -4.7981533795
 H       -11.9361718889        5.3583577017       -7.2648453423
 H       -10.9898632349        6.5805693169       -8.2161412402
 H       -12.5758212260        6.9075354437       -7.5754507390
 H       -10.5482198334        8.6007763505       -7.3328663450
 H       -10.4098179292        8.9740213738       -5.4833421288
 H       -11.8905117686        9.0038677493       -6.4356745496
 Na      -10.3357754333        4.4225251795        3.1190466672
