117

 C       -13.4544101966        6.6397962431       -4.9874553534
 C       -11.9657346719        6.7654479331       -4.5757093172
 O       -11.6277232548        6.8157365350       -3.4231758258
 C       -10.9805361103        6.9295035957       -5.7313209577
 C        -9.5932682902        6.2444800075       -5.5699448927
 O        -8.5698062552        6.7963710626       -5.6989367173
 C        -9.6939278560        4.7712284696       -5.2380881008
 C        -8.3523512555        3.9746664625       -5.6801131144
 C        -8.1528785108        2.7483671987       -4.8343536820
 O        -8.7570643940        2.6457343889       -3.7990537786
 C        -7.2275120232        1.5489256281       -5.3538101163
 C        -7.1637856885        0.5495947851       -4.1162505400
 O        -8.0621119340        0.2256518891       -3.3633247299
 C        -5.7919667503       -0.2352253562       -4.0651749435
 C        -5.7511821889       -1.2426151784       -2.8326235244
 C        -5.5227113852       -0.4137339503       -1.5446977981
 O        -4.9774348349        0.6849872441       -1.6537648386
 C        -6.2325952911       -0.8953212764       -0.2627572340
 C        -7.6935735579       -0.3520426716       -0.2623837689
 O        -8.6465267117       -1.0842520110       -0.5270540100
 C        -7.9256200062        1.1837436722       -0.0791055942
 C        -9.3539773166        1.5833773753       -0.4029857697
 C        -9.8560974082        2.7581793018        0.3149850590
 O        -9.2926372472        3.0599977323        1.3931016595
 C       -11.1254443429        3.5848856516       -0.2093752055
 C       -12.1973840687        3.7521982103        0.8307639024
 O       -12.2429695419        4.7430651046        1.5648988034
 C       -13.2016468114        2.6709158715        0.9455263790
 C       -13.8128123520        2.7184597125        2.3332496502
 C       -12.8668273232        2.6068459334        3.6149097021
 O       -11.6895850843        2.2314064241        3.3905777632
 C       -13.3427369607        3.0506194865        5.0359680210
 C       -12.4590465829        4.3006904627        5.3579394241
 O       -12.4064133189        5.2838776127        4.6369715952
 C       -11.5808584115        4.3095926946        6.7006256902
 C       -10.8086916455        5.5873757061        6.8298061643
 C        -9.7034157117        5.7251567541        5.7068779836
 O        -9.4004450413        4.7156322002        5.0528730911
 C        -9.1940621410        7.0696594210        5.3777907432
 C        -9.9937277036        7.4502015132        3.9431402592
 O        -9.5958656899        6.8417509128        2.9923373617
 C       -10.9756696331        8.6576146806        3.8830384503
 C        -9.4019146949        8.2422925128        6.3743197239
 C        -7.7378613692        7.0381064154        4.8437790653
 C       -14.8818103936        3.5185381546        5.0397793784
 C       -12.9946331419        1.8052732742        5.8348037548
 C       -10.5721026243        5.0144749538       -0.6587729947
 C       -11.7873987668        2.8980984866       -1.4383804441
 C        -6.3400742189       -2.4597612461       -0.1637892347
 C        -5.5183724401       -0.3568744214        1.0152219861
 C        -7.9410886241        0.6692982714       -6.4978524518
 C        -5.8181505521        2.1456876720       -5.9636847004
 C       -11.5080759659        6.4460311702       -7.0851294715
 C       -10.8649669625        8.4647657991       -5.9104744920
 H       -13.6836413926        5.6768961518       -5.4608940461
 H       -13.6613903087        7.4623010845       -5.7288516579
 H       -14.1976532027        6.7813556377       -4.2119728762
 H       -10.5426984633        4.1941340604       -5.4577390872
 H        -9.5165311339        4.8281578755       -4.1368416802
 H        -7.4661344961        4.6461980430       -5.5067549987
 H        -8.3533365834        3.8921890675       -6.7610882820
 H        -4.9319583609        0.5036306123       -3.9140483448
 H        -5.6214245772       -0.8583548200       -4.9492817243
 H        -4.9505942776       -2.0104319421       -2.9966182668
 H        -6.6776536692       -1.7759222512       -2.7785383786
 H        -7.2409336511        1.7693960914       -0.6952479207
 H        -7.5972446689        1.6482742938        0.9466630017
 H       -10.0610463174        0.8231498593       -0.0955056794
 H        -9.4404205431        1.6291634226       -1.4929621935
 H       -12.7162977392        1.6686254038        0.7755409722
 H       -13.9149965471        2.5775156415        0.0945105535
 H       -14.5442333743        1.8629351739        2.3503813108
 H       -14.3092919326        3.6486031342        2.3549027763
 H       -10.8715805169        3.4853028148        6.5890168154
 H       -12.2764935207        4.3153446708        7.5613173903
 H       -10.3257876068        5.7641653232        7.7970384655
 H       -11.5077974961        6.4485283234        6.6403947438
 H       -11.6981816031        8.9163251505        4.7093087558
 H       -11.3731664261        8.5173217881        2.8498230158
 H       -10.2664797172        9.5224907073        3.8768959437
 H       -10.3606742914        8.1023428655        6.8985957367
 H        -9.4805003555        9.1650172096        5.8995116477
 H        -8.5042423605        8.2392020271        6.9801453448
 H        -7.5831722432        6.1720102405        4.1501946990
 H        -7.1671686971        6.9913431148        5.7747338402
 H        -7.4527931692        7.9600054309        4.2785426855
 H       -15.4842920755        2.6594928666        4.8753503371
 H       -15.0549001451        4.2856616496        4.2128198321
 H       -15.0682885435        4.0399991183        5.9998128793
 H       -11.9484030868        1.4921103823        5.5780408698
 H       -13.6914254080        0.9976183626        5.6163434736
 H       -13.0258368830        2.0987324935        6.8675153998
 H        -9.8463008583        4.8507692131       -1.4138706666
 H       -10.1733179319        5.5333241178        0.2295677615
 H       -11.3469350258        5.6092931627       -1.0066370673
 H       -12.5599127932        3.5396006610       -1.7915168634
 H       -12.1551916713        1.8910693123       -1.2064485329
 H       -11.1158126740        2.8118365619       -2.2640258575
 H        -5.3618737392       -2.9249530026       -0.1960075844
 H        -6.9151473714       -2.8586346190       -0.9807457286
 H        -6.8217751157       -2.6397002838        0.7994775362
 H        -4.4540120032       -0.5950931014        0.9969403271
 H        -5.9268608025       -0.7720784319        1.9763490545
 H        -5.7300200868        0.8240364915        0.9564977380
 H        -7.3752669457       -0.2058403614       -6.8576680245
 H        -8.2120052404        1.2850360964       -7.3798713325
 H        -8.8607622840        0.4000650042       -6.0428019512
 H        -6.1019671775        2.7570614110       -6.8288882858
 H        -5.1647942841        1.3219432730       -6.1916854085
 H        -5.4091634271        2.8895753124       -5.2372121806
 H       -11.7646634340        5.3686178465       -6.9665119966
 H       -10.7464890087        6.6665806078       -7.8163440253
 H       -12.4146761441        7.0166179014       -7.4098064175
 H        -9.8797086471        8.7082986891       -6.4475349888
 H       -10.9973823990        8.9393606892       -4.9336639411
 H       -11.6735023199        8.8536147174       -6.4524731273
 Na      -10.3941010329        4.3294310705        2.8982977012
