117

 C       -13.2649392398        6.6078376485       -4.8532643988
 C       -11.7145956599        6.7469765131       -4.4257330070
 O       -11.3982766744        6.4890547126       -3.2877508793
 C       -10.6246569563        7.1053151462       -5.5079139526
 C        -9.4366604810        6.0545554116       -5.7658647490
 O        -8.3616873958        6.3737328569       -6.2466072210
 C        -9.7717300952        4.6027819568       -5.3239664224
 C        -8.5369828749        3.7502651108       -5.5970711948
 C        -8.5790541628        2.5416405061       -4.7550994908
 O        -9.1242778112        2.4698117759       -3.7004342980
 C        -7.8644289142        1.2499131144       -5.3611582104
 C        -7.7294534707        0.1993750839       -4.1669267303
 O        -8.6202587458       -0.5245531983       -3.9185629684
 C        -6.3471459497       -0.0226470544       -3.6017965685
 C        -6.2042449204       -1.0859476516       -2.4727498958
 C        -5.7515103065       -0.4382466332       -1.1240107658
 O        -5.2933589919        0.6752436472       -1.1083607467
 C        -6.2289669990       -1.0778820344        0.2227307659
 C        -7.7258695434       -0.5209080916        0.3564883724
 O        -8.7090854967       -1.2308411745        0.2381233348
 C        -7.8910305725        0.9809326143        0.5791478335
 C        -9.2190649575        1.4034684279       -0.1476662126
 C        -9.7630078480        2.7778903902        0.2597928660
 O        -9.1945018044        3.4392249599        1.1195310604
 C       -10.9570837177        3.4115833278       -0.4566979063
 C       -12.0872179232        3.6056986607        0.5650920562
 O       -12.2351602340        4.6601571015        1.1637232751
 C       -12.9281407285        2.3697625623        0.8552109479
 C       -13.6309269973        2.4890369497        2.2360329522
 C       -12.6023387633        2.7788977763        3.3713294483
 O       -11.4559626783        2.5060809258        3.2003582521
 C       -13.0403341614        3.2591961129        4.8480888295
 C       -12.3028955915        4.5813935165        5.0505654479
 O       -12.1378942503        5.3882919224        4.1440682360
 C       -11.8999515407        4.9621849876        6.4962188796
 C       -10.9774860150        6.0913468279        6.6231235044
 C        -9.8929040226        6.0656630569        5.5733313133
 O        -9.5751115602        5.0083740412        5.0533935744
 C        -9.1879633170        7.3913294097        5.0763371409
 C        -9.8402396781        7.6630525206        3.6786141880
 O       -10.0657644411        6.8659415577        2.7480881829
 C       -10.1364027446        9.1465380691        3.3936224386
 C        -9.2780369134        8.5877383023        6.0900288235
 C        -7.7200283608        6.9773754195        4.8147070755
 C       -14.5564784384        3.5449758808        4.9327396283
 C       -12.6219130591        2.1305183797        5.7764951876
 C       -10.4793432196        4.7608362306       -0.9821908050
 C       -11.4805825357        2.6134704333       -1.7013482244
 C        -6.2944203132       -2.6228471262        0.1650119432
 C        -5.4273842587       -0.6235054684        1.4047431213
 C        -8.8286387974        0.6296269092       -6.3491451983
 C        -6.3832042453        1.6306008196       -6.0087552985
 C       -11.3407940428        7.2403701236       -6.8372988790
 C       -10.0942746161        8.5479209410       -5.1382295980
 H       -13.3074562976        5.8159007072       -5.6609898063
 H       -13.8237082817        7.4686369187       -5.2506452435
 H       -13.7489624379        6.2501793135       -4.0044888064
 H       -10.6447474398        4.0867500846       -5.7566607686
 H       -10.0743324164        4.4783330434       -4.2835363135
 H        -7.5939151498        4.3005247339       -5.5115539521
 H        -8.5666711268        3.4723932613       -6.6931677718
 H        -5.9662246216        0.9744733034       -3.2043323137
 H        -5.6452500907       -0.3016390568       -4.4666326807
 H        -5.6785236410       -1.9413231900       -2.8193595741
 H        -7.2145230288       -1.4554150445       -2.2432862107
 H        -7.0529083173        1.5574079553        0.0935311610
 H        -8.0526601891        1.2356362446        1.6111509318
 H        -9.9321973838        0.6726434330        0.1037800213
 H        -9.0207030276        1.4745519553       -1.2320661037
 H       -12.2296416773        1.5363152166        1.0230119926
 H       -13.7255989031        2.1323438164        0.1482038066
 H       -14.1582550444        1.5967308613        2.5335053137
 H       -14.4600200115        3.2636835993        2.2022567775
 H       -11.5780950792        4.0462339619        7.0601011718
 H       -12.8478678310        5.1301563692        7.0435291526
 H       -10.5932523855        6.1882267175        7.6915002271
 H       -11.4580057560        7.0766570663        6.4530615999
 H       -11.1958835824        9.3243431879        3.6522010776
 H       -10.1626023423        9.4539920848        2.3628499110
 H        -9.4553631045        9.8109230611        3.9872842011
 H       -10.1847446974        9.1141265476        6.1010525614
 H        -8.4416249079        9.2670328735        5.8489186601
 H        -9.2231745242        8.2589912379        7.0699003979
 H        -7.8000203165        5.9567267401        4.5547831557
 H        -7.1302705993        7.0726168622        5.7554903115
 H        -7.2127179914        7.6456534975        4.0370237720
 H       -14.9945853395        2.5049085520        4.7795072526
 H       -14.8522618138        4.1846892977        4.1404414762
 H       -14.9408548302        3.9068035277        5.8836751033
 H       -11.5520092805        2.0884101350        5.7015565726
 H       -12.9800640212        1.1185029004        5.5203593743
 H       -12.8452318754        2.3540215524        6.8409697564
 H        -9.8626671133        4.5481107302       -1.8575521967
 H        -9.9009713454        5.2456054732       -0.2556984660
 H       -11.3659589984        5.3448537634       -1.3389727069
 H       -12.4080437066        3.1232476835       -2.0758226530
 H       -11.7192567295        1.5675446346       -1.5933157772
 H       -10.7313334828        2.6326226041       -2.5057273666
 H        -5.3895138688       -3.0792836164       -0.2574412687
 H        -7.1853783764       -2.8350992100       -0.4319717013
 H        -6.4787214969       -3.0602985823        1.1210860640
 H        -4.3203450044       -0.7012885968        1.2060698625
 H        -5.7413102798       -1.1366118687        2.3762388868
 H        -5.6000948452        0.5214887800        1.6584352188
 H        -8.4732736921       -0.2047678763       -6.9266738371
 H        -9.2005037401        1.3785104045       -7.0293184655
 H        -9.6794895219        0.1905082263       -5.7802692092
 H        -6.3932228017        2.2667861939       -6.8609273629
 H        -5.8376817387        0.7548748410       -6.3399015744
 H        -5.7911627793        2.0552555880       -5.2555837086
 H       -11.7089932077        6.2763267416       -7.1248127097
 H       -10.6361659780        7.6018743695       -7.6188341857
 H       -12.2075263018        7.8931202636       -6.7788466751
 H        -9.3664997492        8.8726054878       -5.8579732754
 H        -9.6206872473        8.6242287011       -4.1769551383
 H       -10.9721426898        9.2372653484       -5.2219101171
 Na      -10.2461325729        4.5436215711        2.8158543404
