117

 C       -13.6527376301        4.1250950158       -1.9565496780
 C       -12.9295958921        3.0233834675       -1.1630146696
 O       -12.5381563370        2.0942678975       -1.8149818585
 C       -13.1253932877        3.0110159169        0.3683833677
 C       -11.9154808286        2.2421355417        1.0326890445
 O       -11.0308189953        1.7285302908        0.4188456823
 C       -12.0526648338        2.0444931809        2.6393940000
 C       -10.9225136678        1.2088503518        3.2453097109
 C       -10.8956600166       -0.1679403772        2.6007992123
 O       -11.9420195360       -0.7245037692        2.2898073674
 C        -9.5125539200       -1.0447513667        2.3990809160
 C        -9.4737746766       -1.1874720875        0.9384880235
 O        -8.8769173267       -0.2950021244        0.2587976514
 C       -10.1482736521       -2.3099319132        0.2633284023
 C        -9.7118637593       -2.7709602420       -1.1956933298
 C       -10.1499904849       -1.9630703932       -2.3938016785
 O       -10.5458760131       -0.8300460865       -2.3335271109
 C        -9.7468775502       -2.3464070546       -3.8763706888
 C        -8.4519434196       -1.5103085887       -4.0093590096
 O        -7.6325356108       -1.5620376278       -3.0937398930
 C        -8.2122920737       -0.4674398116       -5.1507006247
 C        -7.2737174677        0.6323708435       -4.6435784499
 C        -8.0128726925        1.5338315184       -3.7254419650
 O        -9.2365601523        1.4532995531       -3.6344188163
 C        -7.2233228047        2.7337924831       -3.1497792589
 C        -7.9500730723        3.1526488452       -1.6421574786
 O        -8.9245627028        2.6577555851       -1.1389502000
 C        -7.3070543413        4.3614245037       -0.9224207594
 C        -7.9384965493        4.8474222868        0.3952702291
 C        -6.8131199080        5.9002068925        1.0071045812
 O        -5.6345967274        5.6143332325        0.9237860508
 C        -7.2217142267        7.4480023805        1.6158376440
 C        -8.3727034538        8.2230938293        1.0340796867
 O        -9.1942699617        7.6649139663        0.3556066205
 C        -8.4591778556        9.6325431336        1.4080495340
 C        -9.8662612222       10.2835923130        1.0352882142
 C       -10.5476885706       10.9639643510        2.2034782443
 O       -10.1401329319       10.6965698578        3.3400871603
 C       -11.8050163433       11.8991964296        1.8390002608
 C       -13.0740676562       10.9777780877        1.6337372643
 O       -12.9122040078       10.0653362453        0.8339505514
 C       -14.4536801698       11.4326253565        2.2084337974
 C       -11.9848870698       12.8395462743        3.0680505797
 C       -11.6212718548       12.8566971779        0.5315915593
 C        -7.4752051879        7.2087484796        3.0958306439
 C        -5.9353627049        8.2229387552        1.6824836325
 C        -5.6765394739        2.5781784966       -2.8005286069
 C        -7.3325487802        3.7194692942       -4.2472979824
 C        -9.1801771424       -3.8091980103       -3.9197528386
 C       -10.8242567602       -2.1268082732       -4.9380505822
 C        -8.1989562124       -0.3117721913        2.9083993106
 C        -9.8826844221       -2.4542990529        3.2049121469
 C       -13.1109067928        4.4551221424        0.8695818721
 C       -14.5891201299        2.4724664037        0.7117417692
 H       -13.2459917629        5.1108428799       -1.6243637538
 H       -14.7163607632        4.0953685631       -1.7513192573
 H       -13.5214042695        3.9504348143       -3.0518382520
 H       -12.9692635862        1.4131847168        2.7212297952
 H       -12.2835276760        2.9128736610        3.2190931508
 H       -11.1483006718        1.1814931841        4.3782594133
 H        -9.9262123695        1.5993838631        3.1376898267
 H       -11.1469340074       -2.1032155978        0.2293429040
 H        -9.9721773666       -3.1911551494        0.9184622790
 H       -10.0343551675       -3.7681304741       -1.4167611428
 H        -8.6168166738       -2.7853744976       -1.2710898891
 H        -9.0931171725       -0.0198419868       -5.4916986478
 H        -7.6731888683       -0.8699703298       -6.0248484582
 H        -7.0172245135        1.1070337450       -5.5828576564
 H        -6.4177884264        0.2496677862       -4.1393591910
 H        -7.2313307287        5.1145970958       -1.7832596402
 H        -6.1722536600        4.2918510237       -0.6088031251
 H        -8.0885032249        4.0649212101        1.1137816949
 H        -8.9245126530        5.2775643504        0.2253343505
 H        -7.8374693996       10.1984044573        0.7943854466
 H        -8.2659403535        9.7279377594        2.5010518464
 H       -10.4885546678        9.4697377595        0.5285492647
 H        -9.7264685650       11.0054922946        0.2766911223
 H       -15.1554025667       10.6526875806        2.0367550841
 H       -14.7914647293       12.4102777968        1.6535313717
 H       -14.5579741749       11.6790806804        3.2625765869
 H       -12.8657626215       13.5327764502        2.9479081171
 H       -11.0723505067       13.3927822983        3.2225163727
 H       -12.2919178617       12.1371794736        3.9343005304
 H       -12.6554770650       13.0774292542        0.1937935766
 H       -11.1643271958       12.3802083467       -0.2373122256
 H       -11.1206642731       13.7089853287        0.7523684167
 H        -8.0238799546        8.0792413889        3.4724690207
 H        -6.6059922158        6.9781907706        3.6952341535
 H        -8.3015217515        6.3649482964        3.2677483244
 H        -6.0587572449        9.0762182718        2.2878899234
 H        -5.6341390182        8.5697258698        0.7494520746
 H        -5.1981825636        7.5013999024        1.9699735746
 H        -5.0379556119        3.3656978111       -3.1661219771
 H        -5.1602907686        1.6561824410       -3.0801909503
 H        -5.6297793883        2.5607655750       -1.7606888838
 H        -6.8031360987        4.5956526650       -4.0054537632
 H        -8.3831020843        4.0245084318       -4.4238921923
 H        -6.8830518696        3.3764947583       -5.1571885921
 H        -8.4800745441       -3.9797090182       -3.0963407644
 H        -8.8353984438       -3.9961928019       -4.8713120061
 H        -9.9207989461       -4.5922223372       -3.7340415459
 H       -10.7007437117       -2.8417440411       -5.7659894092
 H       -10.8393918298       -1.1399646301       -5.3220620658
 H       -11.8916518640       -2.1523014806       -4.7078581608
 H        -7.8581598180        0.4565515256        2.2206221288
 H        -7.2684461242       -0.9435112035        2.9656142045
 H        -8.2260933822       -0.0606668719        3.9557292437
 H        -9.8828448999       -2.3238562582        4.2873592163
 H        -9.0609772071       -3.2465699435        3.0308435607
 H       -10.8382515159       -2.6988764443        2.8048666205
 H       -12.3319276837        4.9647907542        0.2773484501
 H       -12.8994989311        4.3965687892        1.9111238183
 H       -14.0917568833        4.9040785464        0.6262204159
 H       -14.5576128000        2.0557478066        1.7727710730
 H       -14.9166024205        1.5999525767        0.0738088750
 H       -15.3866483982        3.1989582684        0.7201556377
 Na      -10.4374801176        1.1277826177       -1.7597878380
