117

 C       -13.2106186823        6.4556018364       -4.8786367668
 C       -11.8129503001        6.7330746621       -4.5328825604
 O       -11.3733563825        6.6400131677       -3.4031200581
 C       -10.8988734827        7.1444939087       -5.7608782216
 C        -9.5805544633        6.1606145051       -5.6541712367
 O        -8.5051096019        6.6386545214       -5.8262900750
 C        -9.7312227868        4.7393399497       -5.1591857408
 C        -8.5522632670        3.8438991815       -5.5704059506
 C        -8.4865582789        2.5543369251       -4.7872140417
 O        -9.0071332816        2.4341908598       -3.6754575891
 C        -7.5014517223        1.3916471349       -5.3660781301
 C        -7.3337123793        0.3223166023       -4.1951210636
 O        -8.3352371971       -0.2317595065       -3.7013355307
 C        -5.9112373143       -0.1786909413       -3.8473125921
 C        -5.8997016603       -1.1608550910       -2.6758010245
 C        -5.5754738724       -0.4769083448       -1.3365619235
 O        -4.9591367024        0.5915779438       -1.3334462508
 C        -6.2763228207       -0.9572142506       -0.0093805442
 C        -7.7384389258       -0.4698430905       -0.0142808983
 O        -8.6919835166       -1.2303470769       -0.0743855744
 C        -7.9545391816        1.0310602644        0.1773065966
 C        -9.2271515318        1.5854020531       -0.5624824750
 C        -9.8162563326        2.7013907628        0.1363711077
 O        -9.4240137639        3.0988690185        1.2290009804
 C       -11.0254881885        3.5685915047       -0.4507112520
 C       -12.1190637509        3.5954461626        0.7162688029
 O       -12.2094570424        4.5491125840        1.4397241250
 C       -13.0851095640        2.4559533136        0.9515397800
 C       -13.7849403779        2.5913222866        2.3231581149
 C       -12.7967379343        2.7487402421        3.5445513373
 O       -11.5927111675        2.4625601827        3.4206841210
 C       -13.2789799835        3.0783946271        4.9698882624
 C       -12.4647573118        4.3474195765        5.2830881135
 O       -12.4331193192        5.2365181339        4.4376963497
 C       -11.7078493058        4.5040305456        6.6404161924
 C       -10.9536737125        5.8462355846        6.6599746401
 C        -9.8117920449        5.8764690833        5.5996418513
 O        -9.3216710475        4.8379072609        5.2077253481
 C        -9.1428301183        7.2570675270        5.1606031069
 C        -9.7272155325        7.6684850212        3.7610655288
 O        -9.5342687857        6.9712907322        2.8036650394
 C       -10.7992232489        8.7533379674        3.5984752663
 C        -9.4289372954        8.4224895560        6.2151409911
 C        -7.6252229083        6.8882604892        4.9476217467
 C       -14.8264557987        3.4356959016        5.0489349937
 C       -12.8358438380        1.9384377623        5.9522508566
 C       -10.4046266283        4.9440947666       -0.6811367341
 C       -11.6289143047        3.0543339129       -1.6748955256
 C        -6.2257497273       -2.4545884808        0.0042453235
 C        -5.6371788296       -0.3640126499        1.2887011745
 C        -8.3424458167        0.7335923632       -6.5321855462
 C        -6.1938616236        1.9975048447       -5.9091959197
 C       -11.5968010561        6.9599651577       -7.1436340193
 C       -10.5010091510        8.6391954111       -5.6286356172
 H       -13.2757123001        5.6421214276       -5.5816154270
 H       -13.5874859703        7.3577945097       -5.3329003298
 H       -13.8875017501        6.2006163369       -3.9831576468
 H       -10.6023854651        4.3585832302       -5.6500924864
 H        -9.8792753353        4.6128758841       -4.0517472033
 H        -7.7164150945        4.5835219313       -5.6482539161
 H        -8.6424556963        3.6063125152       -6.6356630043
 H        -5.1659353034        0.6486666565       -3.5435513618
 H        -5.6431504794       -0.7671265644       -4.7602329284
 H        -5.0927267812       -1.9030918176       -2.8160430702
 H        -6.8116002694       -1.7039495863       -2.6387900692
 H        -7.0805974686        1.5451945294       -0.1024554866
 H        -8.1226635464        1.2340684695        1.2660754998
 H        -9.9147397466        0.7430908820       -0.5396491420
 H        -8.9569384082        1.8359987085       -1.5943650690
 H       -12.6271532976        1.4689231742        0.8289631561
 H       -13.8730583793        2.4102928642        0.1788762104
 H       -14.3493261592        1.7108828053        2.5044695776
 H       -14.4999035246        3.4345693309        2.2278335647
 H       -11.0724203619        3.5866505840        6.8245751716
 H       -12.4605509790        4.6096611094        7.4636314763
 H       -10.5533524377        6.0275234201        7.6764061824
 H       -11.5531473621        6.7883156573        6.5143565834
 H       -11.5572449391        8.6078004104        4.3441703413
 H       -11.1936077136        8.7865734828        2.5479216637
 H       -10.3891607389        9.7410535361        3.8946722527
 H       -10.3979283314        8.8121046857        5.9921409123
 H        -8.7107818758        9.1018059934        5.9506841224
 H        -9.2967837902        8.2706883299        7.2926317234
 H        -7.6138596710        6.3433742948        3.9469109439
 H        -7.3058416133        6.3130949875        5.8134095167
 H        -7.0996591589        7.7403740078        4.6783234249
 H       -15.3563932986        2.7631430730        4.3982411520
 H       -14.9022527692        4.5127443408        4.6872950308
 H       -15.2314749399        3.3422645724        6.0695129835
 H       -11.8102719203        1.6076301657        5.7194418856
 H       -13.5077927994        1.0478662543        5.9114286735
 H       -12.9893359726        2.2908465372        6.9421385179
 H        -9.5328137456        4.7228910398       -1.2546194166
 H       -10.1654092410        5.3567102292        0.3194584003
 H       -10.9993048132        5.6625854588       -1.1216555222
 H       -12.2647787029        3.7649030720       -2.1476857136
 H       -12.2790341890        2.1928630443       -1.4912796493
 H       -10.8395662888        2.7758461299       -2.3674588891
 H        -5.1649853432       -2.7522118096       -0.0109463392
 H        -6.8380977838       -2.8986495696       -0.7668615082
 H        -6.6146639224       -2.7626067854        0.9527236817
 H        -4.6775843827       -0.9655144406        1.5075774361
 H        -6.3348682493       -0.4862294415        2.2102470727
 H        -5.2713628282        0.7003803963        1.1720101788
 H        -7.7980058224       -0.1111693621       -7.0070456233
 H        -8.5949564281        1.4796284129       -7.3166744823
 H        -9.2791418013        0.3816163062       -6.1883231487
 H        -6.5175890115        2.6660977364       -6.6766438718
 H        -5.6927291283        1.1929737293       -6.3965639099
 H        -5.5204671780        2.4490042207       -5.2149577791
 H       -11.7116643470        5.9127600388       -7.4418691042
 H       -10.8802952130        7.3651257968       -7.8559663741
 H       -12.5480991415        7.5435390933       -7.1855299314
 H        -9.9213335481        8.9313355096       -6.4951890233
 H        -9.8024113608        8.8447163692       -4.8326825901
 H       -11.4369403745        9.1465830780       -5.5076108621
 Na      -10.2604240122        4.7258183234        2.7634686449
