117

 C       -13.3009241597        6.4078069489       -4.7620026532
 C       -11.7767769245        6.7243020233       -4.5828627067
 O       -11.2373701329        6.5524340453       -3.5021552163
 C       -10.7951162679        7.2027508457       -5.7639500345
 C        -9.5935180173        6.1837639257       -5.6922473646
 O        -8.4106276864        6.5699390387       -5.8595269750
 C        -9.8058368465        4.7290630988       -5.2253811175
 C        -8.5913368132        3.7531688669       -5.5054618946
 C        -8.4849068838        2.5161342779       -4.6793212484
 O        -9.0566787381        2.4073764056       -3.6119439881
 C        -7.6129405413        1.3806990247       -5.3371150053
 C        -7.4333098231        0.2078316466       -4.2562753453
 O        -8.4612656345       -0.3002830728       -3.8347839559
 C        -6.0305695797       -0.1668853561       -3.7861533258
 C        -5.9055472898       -1.1241807996       -2.6523695592
 C        -5.6182427251       -0.3740804193       -1.3036449281
 O        -4.9433881446        0.6273044038       -1.2757396852
 C        -6.2460806108       -1.0043568498        0.0123027137
 C        -7.7549601080       -0.4844968743        0.0626899050
 O        -8.6101699286       -1.2996741234        0.0449701453
 C        -8.0044526557        1.0303975035        0.2577593629
 C        -9.1525208108        1.5754234153       -0.6013291375
 C        -9.7932074616        2.7347746382        0.1729029850
 O        -9.3277583357        3.0920718588        1.2259412966
 C       -11.0661702419        3.5441614664       -0.4655064259
 C       -12.1718807695        3.6723482109        0.7137202841
 O       -12.2499069362        4.6435457818        1.4142116454
 C       -13.0877003164        2.4577516927        1.0075305599
 C       -13.7186091603        2.5147039709        2.3982563225
 C       -12.6965434235        2.6542042538        3.4857878783
 O       -11.5101995024        2.5005320088        3.3561438617
 C       -13.2701621864        3.1249899497        4.9384178172
 C       -12.4657588495        4.4132095397        5.2689808040
 O       -12.3168089913        5.3256822967        4.4542479286
 C       -11.7969769423        4.6690405548        6.6541396218
 C       -11.0402121810        5.9414350991        6.6728686248
 C        -9.8535786075        5.9497491703        5.6440918785
 O        -9.3777374181        4.8801748036        5.3352002295
 C        -9.1782019414        7.2955542435        5.0850533952
 C        -9.8092423412        7.5969103105        3.6941670572
 O        -9.4244580892        6.9280868814        2.7322783874
 C       -10.6280828591        8.8467096665        3.6083893580
 C        -9.4161829495        8.3334018131        6.1544473170
 C        -7.6584263183        7.0198986719        4.8162407984
 C       -14.7623473662        3.4467174667        4.9712294790
 C       -12.8393132283        1.8936857871        5.8217621184
 C       -10.4217957314        4.9851530074       -0.7169689849
 C       -11.6561596919        2.9746962283       -1.7888974904
 C        -6.2341864598       -2.5603701715        0.0287044589
 C        -5.6136424122       -0.4112573476        1.2915508075
 C        -8.4217864724        0.6358094978       -6.4080230502
 C        -6.2853761199        1.9425563032       -5.8404711658
 C       -11.5210978570        7.1455637033       -7.1154092478
 C       -10.4995777077        8.7006437150       -5.5360667747
 H       -13.3376233797        5.5049277693       -5.4312715124
 H       -13.9026511502        7.1866213287       -5.1901449850
 H       -13.7523546959        6.1023631986       -3.7821824654
 H       -10.7896038475        4.3343715761       -5.5122562115
 H        -9.8345532183        4.7613536941       -4.1105459260
 H        -7.8004370925        4.4903186108       -5.3264592208
 H        -8.3823711899        3.5643960167       -6.5753062692
 H        -5.5400979820        0.7648782986       -3.4513910234
 H        -5.5477718139       -0.6588136593       -4.6697408447
 H        -5.0879506050       -1.8268953394       -2.7980972046
 H        -6.8383911653       -1.7334429104       -2.6351653808
 H        -7.0527738562        1.6647410912        0.0795824629
 H        -8.3045680321        1.1328193289        1.3641670052
 H        -9.8103748949        0.7665925300       -0.7274889875
 H        -8.6697702030        1.8536274991       -1.5517472151
 H       -12.5220847960        1.4833257441        0.9406950046
 H       -13.9371691887        2.2763134498        0.2913729703
 H       -14.4450727811        1.7502989230        2.5439347163
 H       -14.2918473907        3.5581542102        2.4422477515
 H       -11.1054521254        3.7912048675        6.7117517624
 H       -12.4575842662        4.6610243413        7.5237805043
 H       -10.6568938625        6.1679914230        7.6976443070
 H       -11.6448557351        6.8269254912        6.5041886415
 H       -11.6111917993        8.6170093051        4.0445797197
 H       -10.7660179293        9.2014874283        2.5509000287
 H       -10.2501473748        9.6990314260        4.2889582121
 H       -10.4237862562        8.3336009155        6.4239440678
 H        -8.9550739428        9.3199081892        5.9387155344
 H        -8.8750475042        8.0058203246        7.0481804151
 H        -7.6080033936        6.6420708758        3.7927511792
 H        -7.2792609551        6.3179408236        5.6077149366
 H        -7.1706873466        7.9638307599        4.7027877980
 H       -15.1913443068        2.7365443554        4.1796621879
 H       -14.9014499136        4.4845190355        4.6971261978
 H       -15.2791388146        3.1844878679        5.9105888755
 H       -11.8852472682        1.5683343495        5.4843858816
 H       -13.5643519564        1.0312066451        5.7522621810
 H       -12.8799910385        2.1348568692        6.8784523766
 H        -9.6010679390        4.8188541460       -1.3664388307
 H       -10.1530175175        5.4110809148        0.1936996207
 H       -11.1170983653        5.6837619005       -1.1598959451
 H       -12.3360423184        3.6672060850       -2.2491058019
 H       -12.2416204939        2.1245533753       -1.6570158622
 H       -10.8418867478        2.7369697277       -2.4516711913
 H        -5.1706231596       -2.8804148759        0.0493396557
 H        -6.8256142465       -2.9681991234       -0.7941910016
 H        -6.6774484718       -2.9051543471        0.9118079490
 H        -4.6257904888       -1.0038090862        1.5385095653
 H        -6.3494215652       -0.6617696315        2.1486859362
 H        -5.3421244241        0.6255108500        1.2872029104
 H        -7.7705375859       -0.1652295521       -6.7722962947
 H        -8.6654011091        1.2962235496       -7.2434337121
 H        -9.3690702437        0.1757378842       -6.0910947207
 H        -6.3999283199        2.5604742633       -6.7386384699
 H        -5.6416517289        1.0651771510       -6.1031738546
 H        -5.7779937603        2.4217230346       -5.0392203303
 H       -11.7841828305        6.1463224712       -7.4423061911
 H       -10.8656761132        7.5509137194       -7.9431103819
 H       -12.4178171708        7.7729901663       -6.9412591166
 H        -9.8087401108        8.9621170041       -6.2469824875
 H        -9.9210905985        8.9629926888       -4.6761950282
 H       -11.5156615845        9.2150008136       -5.6336272987
 Na      -10.2813373487        4.6915749349        2.6581880298
