117

 C       -13.2553853808        6.7646299324       -4.9125545659
 C       -11.7568116161        6.8046828565       -4.5546878894
 O       -11.3815066140        6.6458647317       -3.4111635312
 C       -10.6360178708        7.2205660859       -5.5191227053
 C        -9.5721670082        6.0674472841       -5.7895325844
 O        -8.4743400400        6.3884140024       -6.2525709146
 C        -9.6502876058        4.6549033490       -5.1901155998
 C        -8.5866111749        3.6778028262       -5.7355623439
 C        -8.5033009239        2.3462235322       -4.8612842764
 O        -8.6234614869        2.3766418029       -3.6797770371
 C        -7.9268715515        1.0048543942       -5.5299335910
 C        -7.7531395989        0.0593536869       -4.2748437218
 O        -8.6976833096       -0.4610551307       -3.7891722207
 C        -6.3445721212       -0.1159599774       -3.6395938485
 C        -6.5136173319       -0.9717992652       -2.2975675236
 C        -5.9749862136       -0.3846313447       -1.0162935488
 O        -5.3719871106        0.6545381032       -0.9789141523
 C        -6.3156156045       -1.1105507781        0.3577376505
 C        -7.8200003048       -0.6552800290        0.6364262476
 O        -8.7805151837       -1.3865866260        0.6254935321
 C        -8.0474916120        0.8507088102        0.9048084379
 C        -9.2049022953        1.3241267883        0.0106687293
 C        -9.6145215352        2.6783181376        0.3165057148
 O        -9.0254594043        3.4098343478        1.0966130953
 C       -10.9227576985        3.2189573382       -0.4918669838
 C       -11.9950174229        3.4433710324        0.6609691817
 O       -12.0367853905        4.4436509092        1.3367090319
 C       -13.0238192480        2.3668547465        0.8522798857
 C       -13.6990679392        2.5953415507        2.2149711233
 C       -12.6839858907        2.7653309405        3.3461786829
 O       -11.5174729350        2.4504832569        3.2249487244
 C       -13.1144850547        3.2088276520        4.8109221751
 C       -12.4357103468        4.5951016189        5.1137278405
 O       -12.5054284483        5.4439739099        4.2391986142
 C       -11.9176781115        5.0834288239        6.5087446590
 C       -11.0893869790        6.3715255428        6.3072229916
 C        -9.8625200110        6.1486951173        5.4869727150
 O        -9.4271708587        5.1038647720        4.9822531391
 C        -9.1632458489        7.4941598513        5.0116423209
 C        -9.7890409977        7.9199226615        3.5613144096
 O       -10.1176716732        7.0569908945        2.7465574060
 C        -9.6514605384        9.3914426278        3.2357872658
 C        -9.2022240540        8.5505656137        6.0882790043
 C        -7.6584487228        7.1663332028        4.5778397089
 C       -14.5713034328        3.4344566479        4.9277792730
 C       -12.5373650978        2.2650484488        5.8726438236
 C       -10.6105315498        4.6580244846       -1.0762948855
 C       -11.2785024251        2.2691669311       -1.6416511033
 C        -6.2989592299       -2.6502561852        0.2014888273
 C        -5.3149449685       -0.6500071379        1.4193989320
 C        -8.9689085571        0.4824605093       -6.5741223144
 C        -6.6646718743        1.1975834904       -6.3448578155
 C       -11.1920925333        7.5764733801       -6.9326908212
 C        -9.8996479728        8.4146935353       -4.9526680635
 H       -13.4063692281        6.1210794570       -5.8058853144
 H       -13.6431377222        7.7225392776       -5.1833557037
 H       -13.7568388638        6.4069624706       -4.0303001120
 H       -10.6203611338        4.2286839021       -5.1453752154
 H        -9.4980250795        4.7373408196       -4.0643290728
 H        -7.6418684133        4.2029373838       -5.8542254771
 H        -8.9297347827        3.4278261417       -6.7330344187
 H        -5.9073219515        0.8057929779       -3.3171523572
 H        -5.6619057999       -0.4627490840       -4.3638580297
 H        -6.1012601213       -2.0115913132       -2.3514615032
 H        -7.5777712891       -1.1559354772       -2.1807807096
 H        -7.2657339526        1.5268021761        0.6844215645
 H        -8.3753510834        0.9382571510        1.8777015167
 H       -10.0953568226        0.6743800100        0.2446293554
 H        -8.8947083803        1.2584215489       -1.0921970314
 H       -12.6009852165        1.4148899141        0.9781739467
 H       -13.7753464722        2.4354342168        0.0880785792
 H       -14.2907391123        1.8700943079        2.5670354121
 H       -14.4242136477        3.4651792177        2.1806526861
 H       -11.5180675446        4.2522730527        7.0998951315
 H       -12.7785337105        5.2708374956        7.1347832357
 H       -10.7831952679        6.6862393610        7.2999199901
 H       -11.6660734413        7.1717739232        5.8625407106
 H        -9.7329000141       10.1132282674        3.9946240061
 H       -10.4635483335        9.6949671018        2.5988081654
 H        -8.7410453847        9.4534850829        2.5981103789
 H       -10.2120590423        8.9219214215        6.3773637883
 H        -8.7990358020        9.5716146305        5.7120196003
 H        -8.6867980482        8.2383719252        7.0451193984
 H        -7.7675866048        6.6761975902        3.6481347147
 H        -7.2375742845        6.4080010968        5.2405435513
 H        -7.0065303564        7.9973988089        4.6790397634
 H       -15.1717136364        2.6089005831        4.4636160526
 H       -14.8058604876        4.3284892870        4.4136779931
 H       -14.8690262375        3.5491878819        5.9422316428
 H       -11.4860927751        2.3277374865        5.9210584338
 H       -12.8115537619        1.1832769619        5.7080996219
 H       -12.8414395696        2.5219087825        6.8650614742
 H        -9.6014241855        4.7285494004       -1.5291654355
 H       -10.5738697658        5.3196253114       -0.2424405714
 H       -11.3757527685        4.8590313500       -1.8704712426
 H       -12.1483863309        2.6242120780       -2.1823775298
 H       -11.3744942378        1.2521267341       -1.3457568370
 H       -10.5079635453        2.2620778388       -2.4311751616
 H        -5.2894757051       -3.0374343630       -0.1212000359
 H        -7.0143881465       -2.9188412417       -0.5970388020
 H        -6.5997775516       -3.1042964274        1.0977255587
 H        -4.5005430218       -1.2697966603        1.4214314810
 H        -5.6629467262       -0.6282626603        2.3750636592
 H        -5.0105916431        0.3632093295        1.1817169547
 H        -8.6878777032       -0.5005014051       -6.9447872772
 H        -8.8987226999        1.1072545814       -7.4692246357
 H        -9.9957279207        0.3452394234       -6.2773563731
 H        -6.7073666009        1.9634237583       -7.1671214984
 H        -6.3468400261        0.1883003139       -6.7905840044
 H        -5.8333166995        1.5658795815       -5.7374215660
 H       -11.8040124224        6.8361843690       -7.3869932963
 H       -10.2975373369        7.8097315715       -7.5521174261
 H       -11.7468293213        8.5271594193       -6.9312315634
 H        -9.1696411085        8.7661713899       -5.6090425728
 H        -9.5864287679        8.2280664927       -3.9181684502
 H       -10.6268941406        9.3208890371       -4.8925038387
 Na      -10.2711125229        4.7981343980        2.7578639198
