117

 C       -13.1742491651        6.6416324030       -4.8596380045
 C       -11.7066519743        6.7292332912       -4.4522414174
 O       -11.4433349360        6.5603660230       -3.2739097181
 C       -10.6861677607        7.1770977070       -5.5364581374
 C        -9.5181979692        6.0879002950       -5.7243371540
 O        -8.4971511784        6.3626855482       -6.2372056447
 C        -9.7570596773        4.6894407010       -5.3041531687
 C        -8.5680192980        3.7422959666       -5.6611719392
 C        -8.4566174232        2.4649422004       -4.8464411157
 O        -8.9520911091        2.3415621671       -3.7261564741
 C        -7.8262812901        1.1428934690       -5.3689620318
 C        -7.6849938359        0.1268784868       -4.2374940705
 O        -8.7115773041       -0.4449183391       -3.9142208638
 C        -6.3458452467       -0.0646736639       -3.5541252288
 C        -6.3237776379       -1.0084565832       -2.3898614600
 C        -5.9209960916       -0.3698032724       -1.0688776545
 O        -5.3037155254        0.6852469276       -1.0933855141
 C        -6.3003358384       -1.0493857565        0.2425915639
 C        -7.7121019624       -0.4992948126        0.4143871366
 O        -8.6913271989       -1.2663560439        0.3263077141
 C        -7.8891969572        0.9741238157        0.6662185216
 C        -9.2117724794        1.3563347308       -0.0533812517
 C        -9.7009557472        2.7953492124        0.2792512285
 O        -9.0874869014        3.4789314367        1.1128011825
 C       -10.9232372278        3.3968481581       -0.5165418971
 C       -12.0466462019        3.5056970224        0.5694648563
 O       -12.1847895504        4.5749824067        1.2041991872
 C       -12.9772016294        2.3134166653        0.9321699699
 C       -13.6865229006        2.4956176065        2.3112388628
 C       -12.6001486481        2.7360485864        3.3876935353
 O       -11.4331016434        2.3722345286        3.1902022547
 C       -13.0212910594        3.2787788470        4.7215364745
 C       -12.3744504366        4.7293870792        5.0317288707
 O       -12.2310844830        5.5394442497        4.1440029236
 C       -11.9190766436        5.0082314508        6.4937266361
 C       -11.0098690353        6.2358074197        6.6320986201
 C        -9.8706584463        6.0670439047        5.5371291395
 O        -9.6165588439        4.9279914937        5.1944171688
 C        -9.1763033840        7.3338857635        4.9922789380
 C        -9.8504776374        7.7940095545        3.6405020735
 O       -10.0684865482        6.9784081889        2.7817152432
 C        -9.9662458824        9.3540246253        3.2977085557
 C        -9.2516500670        8.4840401978        6.0561235577
 C        -7.6648690216        7.1415426213        4.7484878915
 C       -14.5916826171        3.4297338376        4.9658015558
 C       -12.6220590487        2.1996580036        5.7282912436
 C       -10.4080924028        4.7010041685       -0.9802623761
 C       -11.4844496736        2.4609152070       -1.7017807812
 C        -6.3784691269       -2.6535612650        0.1969492584
 C        -5.4216761633       -0.6330211622        1.4423155263
 C        -8.8582500828        0.6043908137       -6.3733331297
 C        -6.5134124559        1.4430412319       -6.1257848387
 C       -11.2652344790        7.3194185269       -6.9492319328
 C       -10.0121013845        8.5285185371       -5.0367577284
 H       -13.3840713793        6.0241211685       -5.7423791474
 H       -13.4744272284        7.6960867615       -5.1569785375
 H       -13.7534765578        6.3830103321       -4.0000976206
 H       -10.7782596848        4.3771658961       -5.6619827041
 H        -9.9290525062        4.4801902900       -4.2804889735
 H        -7.6732171642        4.3378510737       -5.4371572472
 H        -8.4572374309        3.5354812911       -6.7467801855
 H        -5.9684179046        0.9037479067       -3.1518951904
 H        -5.5908824018       -0.3676933793       -4.3320828792
 H        -5.6335131134       -1.8201350870       -2.5930352069
 H        -7.3132249023       -1.5287502027       -2.2824878623
 H        -7.0683775395        1.6206398088        0.2149487507
 H        -8.1273014019        1.1869010533        1.7812940872
 H        -9.8952669246        0.6023243602        0.3243034340
 H        -9.0321433316        1.2429880018       -1.0931740017
 H       -12.4392473945        1.3249394900        1.0083046324
 H       -13.8397324695        2.3248615409        0.2371049960
 H       -14.4157058302        1.6333628705        2.7077016408
 H       -14.3621650367        3.3116002874        2.2416177852
 H       -11.4238053377        4.1255514055        6.8335996995
 H       -12.7539804270        4.9570474901        7.1971087338
 H       -10.6937617194        6.2494701835        7.6942065562
 H       -11.4890565901        7.2167901656        6.4618654210
 H       -10.8382163843        9.7906469146        3.9238820073
 H       -10.3671472576        9.6084930860        2.3137737788
 H        -9.0279201764        9.8779869407        3.5064817976
 H       -10.2520884199        8.9331918506        6.1750160778
 H        -8.6165208124        9.2759929054        5.7618805843
 H        -9.0326533566        8.1535988786        7.0327072486
 H        -7.4857950048        6.2420498406        4.1684436132
 H        -7.0653376114        7.1536660319        5.6527160523
 H        -7.4348719880        8.1529528194        4.2310284911
 H       -15.1820586146        2.6162130155        4.5504765467
 H       -14.9884227510        4.4310495138        4.6317120143
 H       -14.7485566730        3.3630804460        6.0867960853
 H       -11.5576147550        1.8665512598        5.6325406107
 H       -13.2109470340        1.3343115425        5.6337251183
 H       -12.7055571442        2.6154077086        6.7740639399
 H        -9.6321744026        4.5360959049       -1.6686610512
 H        -9.9751509215        5.2023165154       -0.1377449635
 H       -11.1879012398        5.2130792912       -1.4731065257
 H       -12.2112385907        3.0095056998       -2.2890586666
 H       -11.9191103383        1.5167717913       -1.3867244480
 H       -10.7153456498        2.1539182450       -2.3724768660
 H        -5.4813258804       -3.0198547238       -0.2201929771
 H        -7.2314464038       -3.0136318533       -0.3633904522
 H        -6.4589237668       -3.0690294210        1.2430853338
 H        -4.3502020132       -0.8769763122        1.3233965627
 H        -5.8516361034       -1.0378651934        2.3855741177
 H        -5.4726900761        0.5107600642        1.6252360811
 H        -8.5338503750       -0.3140763593       -6.8708263661
 H        -9.1230492883        1.2920684769       -7.1704554588
 H        -9.7542744397        0.2522618671       -5.8197865316
 H        -6.7062242314        2.0439151810       -6.9912536307
 H        -6.0837108019        0.5605925743       -6.4988975641
 H        -5.7273049474        1.9530327018       -5.5463019677
 H       -11.6634604110        6.3148789943       -7.2906191180
 H       -10.5303497241        7.7249504682       -7.6494996013
 H       -12.1425119875        7.9864566387       -6.9600939767
 H        -9.3215035289        8.9111619011       -5.8986183973
 H        -9.3568088356        8.2874512043       -4.1705282364
 H       -10.6669466400        9.3212569123       -4.8027480668
 Na      -10.2298218537        4.4769197450        2.6826978011
