117

 C       -13.1283404689        6.5318539115       -4.7869947470
 C       -11.7073184914        6.6136159622       -4.4480102884
 O       -11.3287849046        6.4624798265       -3.2954716468
 C       -10.7439996786        7.1266256344       -5.5822106792
 C        -9.4979268904        6.1687154101       -5.6041597052
 O        -8.4318270769        6.4731897674       -6.1872808576
 C        -9.7525411457        4.6951001107       -5.3706848281
 C        -8.5321783294        3.7305215631       -5.6244680202
 C        -8.5654559314        2.4914283945       -4.6849841240
 O        -9.2059092343        2.5613034199       -3.6522232752
 C        -7.8717567743        1.2268732360       -5.2585813543
 C        -7.5878850414        0.0704670251       -4.2337591599
 O        -8.5705443381       -0.5609280443       -3.8292716355
 C        -6.1588494646       -0.0105245967       -3.5922716303
 C        -6.1941680824       -1.0695978556       -2.4714490216
 C        -5.8222472689       -0.4058743522       -1.1698211208
 O        -5.1884282577        0.6336130171       -1.1218486295
 C        -6.2729329708       -1.0920602616        0.1858943153
 C        -7.7459713109       -0.5401428508        0.2979545733
 O        -8.6619419416       -1.2769996135        0.1746813304
 C        -7.9469393043        0.9856384453        0.4523652951
 C        -9.2349286007        1.4795693772       -0.2967989667
 C        -9.7104931611        2.7757174748        0.2288082033
 O        -9.2503436963        3.3175875369        1.2087426713
 C       -10.9850466755        3.5207452590       -0.5277994513
 C       -12.1094345282        3.6517336524        0.6054323485
 O       -12.2614832259        4.7022495404        1.1363176462
 C       -12.9228609615        2.4023393270        0.8852189594
 C       -13.6162256381        2.4755613462        2.2385983761
 C       -12.6372969154        2.6864681305        3.3643668081
 O       -11.4319612043        2.6387265054        3.1690294208
 C       -13.0821494508        3.1370994669        4.8062791389
 C       -12.3561220928        4.5014433483        5.1136488747
 O       -12.0715758068        5.2823056792        4.2304852384
 C       -11.9538326002        4.9148988556        6.6129504955
 C       -11.0148598609        6.0897166931        6.6324221078
 C        -9.9034483758        6.0447133406        5.5562660311
 O        -9.5386574845        5.0291374820        5.0058384029
 C        -9.1394400577        7.3329577892        5.1058313448
 C        -9.7969065815        7.6749935635        3.6822597619
 O        -9.9549331805        6.8045066880        2.8804393105
 C       -10.3596890009        9.0652338050        3.3730024631
 C        -9.3088954258        8.4825821321        6.0379344284
 C        -7.6437333916        6.9254202575        4.8265308084
 C       -14.5813971387        3.5871745218        4.8711137724
 C       -12.6287228867        2.0542721201        5.8274445999
 C       -10.5461569394        4.9978559908       -1.0244151942
 C       -11.5313158349        2.6575532449       -1.6692828817
 C        -6.2227652679       -2.6449009167        0.0912633741
 C        -5.3638304792       -0.5876236705        1.3534120717
 C        -8.7207168002        0.7108298901       -6.4419473203
 C        -6.5539851454        1.7433225271       -5.8366832793
 C       -11.4059228977        7.1997103013       -7.0102439833
 C       -10.1398948333        8.5006123615       -5.2085187165
 H       -13.3184122684        5.8417742056       -5.5849581528
 H       -13.3904994904        7.4776560912       -5.1607028591
 H       -13.7539315523        6.3064524393       -3.8647379928
 H       -10.5922033722        4.3129798363       -5.8959698816
 H       -10.1345750243        4.5240311430       -4.3232592096
 H        -7.5774252742        4.2330125279       -5.3549740798
 H        -8.4298834846        3.5979037512       -6.7023849393
 H        -5.8998680087        1.0185895551       -3.2162154009
 H        -5.3890003496       -0.3259456562       -4.3044370797
 H        -5.4113548808       -1.8135015604       -2.6928989003
 H        -7.1097216311       -1.6086030428       -2.4592713991
 H        -7.1512223311        1.5250304595        0.0608756893
 H        -8.1147408956        1.2368869906        1.4504385345
 H       -10.0415042521        0.7527862620       -0.1033451547
 H        -9.0081832546        1.6257280739       -1.3863662197
 H       -12.3275298878        1.5247230158        0.9132526092
 H       -13.7364929869        2.2741015748        0.1785141834
 H       -14.2392647183        1.6871707491        2.4157474446
 H       -14.2966658637        3.3790742688        2.2725944869
 H       -11.5187005177        4.0101522352        7.1278969663
 H       -12.8939487685        5.0189728151        7.1958924569
 H       -10.4130305946        6.1555243616        7.5588480119
 H       -11.4706929528        7.0936426444        6.6190161121
 H       -11.3999787486        9.1295032278        3.4291663830
 H       -10.1581397147        9.3334495250        2.3286028713
 H        -9.8606260337        9.8029948442        4.0165914275
 H       -10.3122751029        8.8588152299        6.0435449346
 H        -8.5613030530        9.2187064999        5.7395162398
 H        -9.1934995004        8.2317957968        7.1167592010
 H        -7.6610403389        5.8365945002        4.5250454168
 H        -7.1892093584        6.9791104257        5.8267664923
 H        -7.1509069143        7.5362404789        4.1517702869
 H       -15.2309644988        2.7450635593        5.0709284817
 H       -14.8508553054        4.0989535664        3.9661149737
 H       -14.7191285089        4.2527312282        5.6813746844
 H       -11.5507878371        2.0801274888        5.9252584147
 H       -12.8602816580        0.9954563538        5.5037579268
 H       -13.0804034294        2.2059166818        6.7743496725
 H        -9.8799844025        4.9257319315       -1.9266722895
 H        -9.9846351965        5.4332768716       -0.1555048919
 H       -11.4197095185        5.6178076374       -1.2740706525
 H       -12.5735982439        2.9454114243       -1.8901539376
 H       -11.6085756544        1.5721962684       -1.4456246475
 H       -10.9096567295        2.7073769524       -2.5989515721
 H        -5.1882500039       -2.9887315029       -0.1600558058
 H        -6.9887709663       -2.9893404459       -0.6030623367
 H        -6.4843174538       -3.0749921923        1.0194121229
 H        -4.2853761167       -0.7556161769        1.0532549811
 H        -5.5977520164       -1.0334622825        2.3517647800
 H        -5.4322476953        0.4308336059        1.5042726019
 H        -8.2537447391       -0.0905689090       -7.0194395841
 H        -9.0452465701        1.5201625560       -7.1065655353
 H        -9.5825018079        0.2429793641       -6.0393354398
 H        -6.7218949682        2.4180808030       -6.6696204704
 H        -5.9559808353        0.9389615101       -6.2827316339
 H        -5.9523546291        2.1702896794       -5.0623867475
 H       -11.8002910423        6.2511803776       -7.2533233369
 H       -10.6241200054        7.3858860056       -7.7278213769
 H       -12.2101658300        7.9254392872       -7.0852332672
 H        -9.2183916133        8.6814022749       -5.6784876748
 H        -9.8366933747        8.5431052692       -4.1694441393
 H       -10.9150519164        9.2636253186       -5.4464705904
 Na      -10.2720295106        4.6461802496        2.8940103988
