117

 C       -12.7051536654        7.0760586667       -5.5412387234
 C       -11.4461287742        6.8786193314       -4.7876326060
 O       -11.4789362028        6.8072125101       -3.5722755987
 C       -10.1748824583        7.2113215266       -5.6215574558
 C        -9.3710151336        5.8806548973       -6.0014561223
 O        -8.7278678752        5.9499979874       -7.0277892828
 C        -9.5126533904        4.5921107992       -5.2371721845
 C        -8.6709056970        3.4782500652       -5.9122629364
 C        -8.5711877802        2.2640996734       -4.9373891233
 O        -8.7474128635        2.4736758200       -3.7775255176
 C        -8.3509653113        0.8271083670       -5.3675569058
 C        -8.2900644760       -0.1768088807       -4.1403037287
 O        -9.2316254902       -0.7812568176       -3.7555541856
 C        -6.9580424309       -0.0585407271       -3.3910852967
 C        -6.9350592774       -0.9512998319       -2.0919201555
 C        -6.5058244253       -0.2879194564       -0.8350851484
 O        -6.1234691410        0.8720852063       -0.7609811716
 C        -6.4204561875       -1.1354553768        0.4905134206
 C        -7.6301138715       -0.7386411421        1.4021475644
 O        -8.4146479640       -1.5975244928        1.7933904822
 C        -7.9844104180        0.7696452413        1.6498595263
 C        -9.2055366413        1.1344833089        0.8349148966
 C        -9.6793138647        2.4941972713        0.9220616574
 O        -9.3548217685        3.2450983791        1.8153976742
 C       -10.7097641668        2.9690250856       -0.2715412049
 C       -12.0099883505        3.4047115321        0.4655010340
 O       -12.2552686362        4.5824083904        0.6993281350
 C       -12.9451025809        2.2455418798        0.9283669213
 C       -13.6708681183        2.6649535109        2.2271096681
 C       -12.6464525493        2.6833963180        3.4348755726
 O       -11.5493948063        2.1402614392        3.3030164175
 C       -13.0562164611        3.4247777200        4.8630979625
 C       -12.3579791448        4.8488346220        4.9984234921
 O       -12.4332186925        5.6169541184        4.0404757735
 C       -11.6304188644        5.3322054433        6.3082581526
 C       -10.9427562059        6.7060489319        6.0858108476
 C        -9.8519714451        6.4654852583        5.0618634499
 O        -9.6441964932        5.3346618618        4.6284449465
 C        -8.9361059918        7.5973573390        4.5186300439
 C        -9.3289784042        8.0986337577        3.0392729542
 O        -9.6668661078        7.1946542962        2.2724173229
 C        -9.2533298011        9.5568070475        2.5652454072
 C        -8.9392754446        8.6740093682        5.5892736760
 C        -7.4835825944        7.0699748225        4.3969827204
 C       -14.5487374116        3.5862354787        5.0383220694
 C       -12.5697770085        2.4631504659        6.0272298789
 C       -10.1417553073        4.3015609547       -0.9358067090
 C       -11.0777487862        1.9154637474       -1.3052052597
 C        -6.4826045992       -2.6673503920        0.4017497460
 C        -5.0780783788       -0.6298299466        1.1879332765
 C        -9.6258118427        0.4042550347       -6.2167319594
 C        -7.0470498925        0.7667880032       -6.2664505725
 C       -10.4260664169        8.1719457834       -6.8212337322
 C        -9.3143158388        8.0277431763       -4.5737229034
 H       -12.7702536471        6.3861630332       -6.3796300035
 H       -12.6519227795        8.1154377961       -5.8720118544
 H       -13.5607704224        6.9511009826       -4.9087964518
 H       -10.5752979293        4.2575399452       -5.3357772211
 H        -9.1248422591        4.6181375664       -4.2283068606
 H        -7.7204224136        3.9287005548       -6.1976836354
 H        -9.1340790902        3.1785478434       -6.8333370784
 H        -6.8002196707        0.9515406253       -3.1249659199
 H        -6.0873730440       -0.3546679525       -3.9610655380
 H        -6.3425127355       -1.8167221566       -2.3178822816
 H        -7.9923529408       -1.2981099250       -1.9157304043
 H        -7.1294154251        1.3866162265        1.5626171424
 H        -8.3114716287        1.0005261723        2.6223967225
 H       -10.0514635913        0.4028791628        1.0853184112
 H        -9.1624249281        0.8650305750       -0.2284750625
 H       -12.4871401845        1.2983438792        1.1075691448
 H       -13.6234481217        1.9754007535        0.1413586123
 H       -14.4685677209        1.9485048651        2.5126738508
 H       -14.1770393777        3.6323149476        2.0315282673
 H       -10.8642737019        4.6155893738        6.6063561555
 H       -12.3225980548        5.5313526082        7.1790952876
 H       -10.5086288241        6.9125056364        7.0504637366
 H       -11.6666341160        7.4706901652        5.7751227843
 H       -10.0552325866       10.1137825098        2.9760454397
 H        -9.1763431835        9.5518884944        1.4565527972
 H        -8.3800524699       10.0316278160        3.0822759145
 H        -9.8894755854        9.1918994984        5.7737437820
 H        -8.0863862161        9.3845635222        5.2913562572
 H        -8.8846164382        8.2769086928        6.6514591841
 H        -7.3755547013        6.2865863583        3.6388228615
 H        -7.2788681974        6.6906727093        5.3891906441
 H        -6.8769989849        7.8316144842        4.0711657884
 H       -15.0137321734        2.6140422442        4.8252178540
 H       -15.0272246318        4.2946453745        4.3385976831
 H       -14.8896862540        3.7974463917        6.0607698608
 H       -11.5436074886        2.0682326321        5.9786928650
 H       -13.1932038338        1.5618160534        6.1810796209
 H       -12.6465357033        3.0129606920        6.9445675026
 H        -9.3773574450        4.0227516385       -1.6300676822
 H        -9.7125914299        4.9105328797       -0.1539964166
 H       -10.8741100564        4.9319514302       -1.3848599013
 H       -11.7772140673        2.3469871868       -1.9615141479
 H       -11.5489287511        1.0116380253       -0.9334118548
 H       -10.1865383022        1.6528698765       -1.8547190206
 H        -5.8133535169       -3.1076525421       -0.3442410993
 H        -7.5103965521       -2.9908954527        0.2799346915
 H        -6.1662015935       -3.1167734214        1.3384797420
 H        -4.2505482856       -0.9884352457        0.7404550310
 H        -5.0789377415       -0.7908416873        2.1919296401
 H        -5.0240147079        0.4756704032        1.0253669648
 H        -9.5027382357       -0.4546169973       -6.9187810775
 H        -9.9948938699        1.2528339442       -6.8274492669
 H       -10.4429355815        0.1907278330       -5.5624215344
 H        -7.2833507129        1.2544920597       -7.2269639569
 H        -6.7145375072       -0.2370354339       -6.5543338799
 H        -6.1568573492        1.1725750987       -5.8072142031
 H       -10.9470980981        7.6361545662       -7.6549212913
 H        -9.4848340867        8.4610445483       -7.2889321892
 H       -11.0529808189        9.0752349160       -6.6566936255
 H        -8.3299930144        8.1194088638       -4.9083772148
 H        -9.1766391422        7.5136100633       -3.5770789694
 H        -9.8634220539        8.9904553064       -4.4905366412
 Na      -10.7446361856        5.1521737859        2.4046012769
