117

 C       -13.2014808344        6.8060762238       -4.9546702660
 C       -11.7265116075        6.7689577112       -4.5387007231
 O       -11.5045965217        6.5686887394       -3.3602014785
 C       -10.5544351836        7.2292407730       -5.5798254033
 C        -9.3465994014        6.0740532577       -5.7182948126
 O        -8.4034548827        6.2896231711       -6.3709744859
 C        -9.6223327015        4.6500115108       -5.0927603162
 C        -8.7036683823        3.5738471295       -5.7973176943
 C        -8.3744610011        2.3982177706       -4.9397710937
 O        -8.5004734760        2.4480765084       -3.7306659892
 C        -7.9292500996        1.0313741886       -5.5312895080
 C        -7.8246393504        0.0545058615       -4.2635233689
 O        -8.8259129447       -0.5201774565       -3.8771068336
 C        -6.4756299964       -0.1409587025       -3.5993151077
 C        -6.5576532505       -0.9861363667       -2.3146467715
 C        -6.0257437214       -0.3676572040       -1.0599784510
 O        -5.4043486247        0.6750620740       -1.0039832220
 C        -6.3423018918       -1.1474530652        0.2857041684
 C        -7.7695176924       -0.7006005232        0.7351533677
 O        -8.6672042377       -1.5750714398        0.7906688807
 C        -8.0314408270        0.7605493242        1.0752813601
 C        -9.1126147226        1.2999253696        0.0256187657
 C        -9.6089598152        2.7349851889        0.3284739567
 O        -9.1524876362        3.4749957050        1.2043673502
 C       -10.9238530709        3.2389914462       -0.4994674214
 C       -11.9936760684        3.4313734540        0.5860780564
 O       -11.9186432175        4.4455870540        1.3055747117
 C       -13.0444313631        2.3673524363        0.9159521301
 C       -13.7480477491        2.5846145026        2.3308199423
 C       -12.6322076648        2.7345551681        3.4604981802
 O       -11.4885804123        2.5580894144        3.1538095303
 C       -13.1398398769        3.2050551295        4.8980210127
 C       -12.5156478777        4.6357715697        5.0594175460
 O       -12.5605815355        5.4027155923        4.1103160474
 C       -11.8873968017        5.0743836051        6.4162712277
 C       -11.0834046711        6.3565052266        6.2277950314
 C        -9.8938763025        6.2323074925        5.3208377943
 O        -9.4484465688        5.1892487862        4.9034655057
 C        -9.0900603872        7.5523101111        4.9434103037
 C        -9.7064592517        8.0046315399        3.5877241818
 O       -10.1614861887        7.1823073160        2.7942374739
 C        -9.5756867006        9.4293027717        3.1145774958
 C        -9.0648889007        8.6093319456        6.0133307915
 C        -7.6417671344        7.1233629451        4.6235875004
 C       -14.6870884703        3.3995605897        5.0013962530
 C       -12.5964668650        2.1134321436        5.8822275084
 C       -10.6691620490        4.6270405680       -1.0960473668
 C       -11.2788057137        2.2891609915       -1.6215602381
 C        -6.2583169611       -2.7274406478        0.2122281779
 C        -5.3857246571       -0.6815674163        1.4008135182
 C        -9.0941221838        0.3913692795       -6.4174478454
 C        -6.6379935437        1.2036087605       -6.3100534726
 C       -11.2290501527        7.6981949163       -6.9940645191
 C        -9.8543469486        8.4358577850       -4.9417000827
 H       -13.3726142073        6.1313415963       -5.8185224412
 H       -13.5958809488        7.7901928235       -5.2424934432
 H       -13.6990186209        6.4714885700       -4.1228352577
 H       -10.6980065647        4.4093793815       -5.0713277311
 H        -9.4510411824        4.6427236368       -4.0078442537
 H        -7.7693141441        4.1020590061       -5.9719821982
 H        -9.1304544517        3.3345927638       -6.8128830028
 H        -6.0045295501        0.8252740700       -3.3766754108
 H        -5.7568854027       -0.5481811556       -4.3681499923
 H        -6.0761876598       -1.9284261740       -2.4198811443
 H        -7.6027217056       -1.2695621964       -2.1771325850
 H        -7.1619806762        1.3918505552        0.9555845621
 H        -8.4096778614        0.8631576200        2.0511004417
 H        -9.9558340384        0.6232922825        0.0920460940
 H        -8.6635488139        1.2968457330       -1.0030484095
 H       -12.6211081197        1.3814721159        0.9932940097
 H       -13.8141809919        2.4500245335        0.1899502937
 H       -14.6082106669        1.9566812818        2.6538663127
 H       -14.2308365894        3.5422395187        2.3031774885
 H       -11.4145610882        4.1229666132        6.7613372677
 H       -12.6130390125        5.1860767535        7.2473181647
 H       -10.8298688061        6.7761367908        7.2440553330
 H       -11.7861369389        7.0409751922        5.7337882743
 H        -9.5485469628       10.2762227372        3.8397624563
 H       -10.4452770327        9.6466673039        2.5491314702
 H        -8.8095304653        9.3997160917        2.3664449128
 H       -10.0144729376        9.1715626430        6.1023862468
 H        -8.4177466259        9.4817849947        5.7585082956
 H        -8.7795660969        8.2061124894        6.9730783238
 H        -7.6557861958        6.5975506071        3.7438377001
 H        -7.3827185960        6.4193270840        5.3826809550
 H        -6.8769562197        7.9412062085        4.7955845890
 H       -15.1359294679        2.4085629749        4.9462657848
 H       -15.0561833373        3.9263400427        4.1740628904
 H       -15.0140532031        3.9008654631        5.8829227454
 H       -11.5620811127        2.1948978823        6.1310917184
 H       -12.8201174429        1.1213225961        5.5677556338
 H       -13.0661005658        2.2285150237        6.8773457636
 H        -9.7113111664        4.5495298723       -1.6720815246
 H       -10.5037011154        5.3997862546       -0.3459686457
 H       -11.4817331899        4.7623524032       -1.8668812655
 H       -12.3340036943        2.4521298228       -1.9652824180
 H       -11.1666936866        1.2794011954       -1.2333097331
 H       -10.7283955915        2.3540048778       -2.5591002989
 H        -5.2699302918       -3.0911393321       -0.0330763719
 H        -6.9337099645       -3.1162501794       -0.5565720422
 H        -6.5742499874       -3.0931372559        1.1941674733
 H        -4.5752141659       -1.3758459709        1.4896721448
 H        -5.7924541803       -0.7203655645        2.4140377463
 H        -4.9999116117        0.3818944017        1.2503990464
 H        -8.8099742365       -0.5503269423       -6.8222732878
 H        -9.2168331816        0.9930751295       -7.2956156241
 H       -10.0912288954        0.2257111822       -5.9687925131
 H        -6.6305570140        2.0178789670       -7.0480759663
 H        -6.2829923798        0.2661333689       -6.7870831373
 H        -5.8611533591        1.5735131225       -5.6198283658
 H       -11.9244743574        7.0327413181       -7.4598302541
 H       -10.4037265488        7.9143050279       -7.6684970876
 H       -11.6914788963        8.6457533474       -6.8770616955
 H        -8.8952025220        8.6959735402       -5.4317863005
 H        -9.8609523603        8.2528760272       -3.8944416829
 H       -10.3866140154        9.3631896515       -5.0456292488
 Na      -10.2792288892        4.9397258842        2.8256487848
