117

 C       -12.9311797476        6.8669094398       -5.3482865130
 C       -11.5345657212        6.8382497021       -4.7503524528
 O       -11.2547841995        6.3908235714       -3.6497974983
 C       -10.3446816930        7.2465245451       -5.6243928788
 C        -9.4019821637        5.9080033259       -5.8441486396
 O        -8.4198382708        6.0180736540       -6.6114243100
 C        -9.6105652241        4.6272470511       -5.0985334819
 C        -9.0197052407        3.3470810428       -5.7807190172
 C        -8.4921965234        2.3854464708       -4.7735398348
 O        -8.1537270791        2.6435033434       -3.6258833180
 C        -8.2251304864        0.9248232938       -5.4065572911
 C        -8.1893670564       -0.0085683172       -4.2107090987
 O        -9.1421509643       -0.7141736748       -3.9844751629
 C        -6.8997259816       -0.0500855063       -3.3817712279
 C        -6.8685919662       -1.0249345789       -2.1694120370
 C        -6.3120536677       -0.3283257551       -0.9255330863
 O        -5.9553781296        0.8403606750       -0.9544957662
 C        -6.3132459666       -1.1719484225        0.3913957350
 C        -7.6997971153       -0.7663487506        1.1066705301
 O        -8.4577604628       -1.6261294484        1.3507313748
 C        -7.9490636896        0.7365031250        1.3154744610
 C        -8.8822136724        1.2684322363        0.2339421254
 C        -9.6670785780        2.4757811596        0.6814199870
 O        -9.4394736037        3.0958874684        1.6695714308
 C       -10.8036392636        3.0619403068       -0.2872544443
 C       -12.0360491753        3.4239545702        0.5509891862
 O       -12.2606815577        4.5923844049        0.7791145546
 C       -13.0027498772        2.3009286904        0.9837253516
 C       -13.6825947051        2.6773913872        2.2867914876
 C       -12.6673742068        2.7277468441        3.4977282226
 O       -11.4652614262        2.4363085683        3.3454145319
 C       -13.0812225889        3.2623233149        4.9550257188
 C       -12.5454821665        4.7116420947        4.9870471188
 O       -12.7135510999        5.4808063182        4.0387103103
 C       -11.7529125951        5.2959784013        6.1821558644
 C       -11.0196688803        6.5891744882        5.9933416421
 C        -9.7294271847        6.3349123741        5.0971992243
 O        -9.5679428735        5.2522649836        4.5569378387
 C        -8.9270888588        7.6082317428        4.7691273387
 C        -9.4696238085        8.2147714534        3.3104613520
 O       -10.0215722609        7.4123611554        2.5789736949
 C        -9.1627817064        9.6142556700        2.9128585704
 C        -9.0790700897        8.5594385257        6.0092773767
 C        -7.3994999147        7.3271541601        4.4689483235
 C       -14.6291068915        3.4010687963        5.2448128900
 C       -12.5934443091        2.3176041271        6.0526041346
 C       -10.2193165218        4.3101023777       -0.8899904986
 C       -11.2211805865        2.1176723819       -1.4511069045
 C        -6.3710598269       -2.7173910498        0.1890852549
 C        -5.1377009223       -0.7582713570        1.2650269362
 C        -9.4373344215        0.5139033467       -6.3173217281
 C        -6.8986244249        1.1420014858       -6.1506194202
 C       -10.7346746716        7.9901871040       -6.9504522498
 C        -9.5565564219        8.2390551539       -4.8166111701
 H       -12.8246844203        6.3905707780       -6.2622266842
 H       -13.2127991720        7.8845830533       -5.5232222625
 H       -13.7570807000        6.3403249594       -4.7571056717
 H       -10.7029096770        4.4139427266       -4.9219709100
 H        -9.0757101437        4.6757884750       -4.1587475210
 H        -8.1030905181        3.7045008389       -6.2929827923
 H        -9.7028558049        2.9119310998       -6.5111754707
 H        -6.5621059377        0.9168607319       -2.9880146255
 H        -6.0754326738       -0.2718112227       -4.1068908284
 H        -6.3062705107       -1.8969141959       -2.3487623068
 H        -7.8930766096       -1.3550892157       -2.0055007119
 H        -7.0551178143        1.3235422268        1.2974010563
 H        -8.2613012247        0.8829875223        2.3740389652
 H        -9.4794486613        0.4846044752       -0.2539980332
 H        -8.2644297127        1.5839075688       -0.5784443319
 H       -12.5818871963        1.3063832456        1.1324607335
 H       -13.8235689439        2.1399385836        0.2891442561
 H       -14.4593036480        1.8747988102        2.5822863231
 H       -14.3111638343        3.5421569166        2.1806564018
 H       -10.9832167653        4.6130196539        6.5957064747
 H       -12.5115929888        5.3451415666        7.0381153691
 H       -10.6916625148        6.7890817111        7.0198168891
 H       -11.6695808870        7.3552844210        5.5043870194
 H        -9.4101091226       10.2849469597        3.6900821072
 H        -9.6504139691        9.7878806706        1.9147281072
 H        -8.1342002250        9.7059527877        2.6282245694
 H       -10.0870512994        8.9826965524        6.0069590350
 H        -8.4175785066        9.4109076205        6.0024405432
 H        -8.7619788730        8.1579832665        7.0241003674
 H        -7.2427723885        6.3542688431        3.8773045272
 H        -6.8690421176        7.3178864146        5.4169322763
 H        -7.0772426891        8.1021106350        3.8615765206
 H       -15.0748244144        2.5152259733        4.9416553074
 H       -15.1618863061        4.1849183222        4.6986217500
 H       -14.8579441529        3.4970326184        6.2887017203
 H       -11.4897859048        2.2801730387        6.1012241536
 H       -12.9040176218        1.3026402488        6.0036964687
 H       -12.8985583647        2.6477576776        7.0278573083
 H        -9.2225943638        4.0655929065       -1.3269795138
 H       -10.1599092761        5.0805664715       -0.0321266825
 H       -10.8768800322        4.7843422115       -1.6146536671
 H       -12.2138872151        2.3781853171       -1.8023037419
 H       -11.3612786048        1.0341062395       -1.2433154786
 H       -10.5032526656        2.2801764090       -2.2606810504
 H        -5.5051881018       -3.0651041433       -0.3541901414
 H        -7.2477385913       -3.0561877335       -0.3537724059
 H        -6.3509415605       -3.1858223463        1.2028400469
 H        -4.1667536097       -0.7150168403        0.6925584872
 H        -4.9826529476       -1.3550699245        2.2106297078
 H        -5.2605782527        0.2925559537        1.5545305501
 H        -9.4973376646       -0.5750152672       -6.3880899235
 H        -9.4246028844        0.8651177722       -7.3447943703
 H       -10.3863875206        0.8194000468       -5.9491936480
 H        -7.0151141696        1.8454407916       -7.0228540096
 H        -6.5501956173        0.2012600804       -6.6143969266
 H        -6.0118385154        1.5343370364       -5.5720526113
 H       -11.5309999192        7.5207044159       -7.5669676182
 H        -9.9387572613        8.1517240575       -7.6272129522
 H       -11.1399785780        8.9489204388       -6.6465817159
 H        -8.7408091617        8.6641259732       -5.3869809922
 H        -9.2980128010        7.7174227145       -3.8583570313
 H       -10.1569015034        9.0769311991       -4.5235328443
 Na      -10.6781491696        5.0231865273        2.4498430223
