117

 C       -12.4768744454        7.0232084811       -5.8482503088
 C       -11.2311395006        6.9853994324       -4.9501138966
 O       -11.3026837394        6.5666836268       -3.8145283677
 C        -9.8331276336        7.2810096313       -5.5478269074
 C        -9.4782607434        5.8810540827       -6.2924732769
 O        -9.0151949928        5.7170374791       -7.3537565660
 C        -9.6060907248        4.6615394120       -5.3313585577
 C        -8.6902144426        3.4606084226       -5.7700771784
 C        -8.9012819593        2.2560703437       -4.8041553043
 O        -9.2877607674        2.4690644964       -3.6861818369
 C        -8.6266353151        0.8307828194       -5.3115716028
 C        -8.4022667082       -0.1837337960       -4.0542941591
 O        -9.3026647508       -0.8952443252       -3.6309034466
 C        -6.9909186575       -0.0901259878       -3.2746019673
 C        -7.0299955923       -0.9177585996       -1.9462167319
 C        -6.5932604657       -0.1790248977       -0.6769953989
 O        -6.4075659100        1.0206317377       -0.5431020744
 C        -6.4665130991       -1.0498001169        0.6367662902
 C        -7.6641588780       -0.7269581299        1.5984403858
 O        -8.1287379367       -1.6138466959        2.3392426000
 C        -8.1115138837        0.7125019448        1.7032981593
 C        -9.3246180698        1.0282092282        0.9077020965
 C        -9.6327318411        2.4522879861        0.8221227740
 O        -9.1371813558        3.2784813475        1.5851510442
 C       -10.7521386301        2.9668066015       -0.1946983770
 C       -11.9160711581        3.4371512180        0.7000658322
 O       -12.0674756965        4.6174240430        1.0194364943
 C       -13.0245213862        2.4673465943        0.9657950485
 C       -13.7739119704        2.8719737790        2.2923904748
 C       -12.7380724864        2.8153397092        3.4599793514
 O       -11.6217389578        2.4551705794        3.2845272927
 C       -13.1008384391        3.4504191349        4.9207068586
 C       -12.3232230743        4.8759135048        4.8046850450
 O       -12.2255534481        5.4099215455        3.7172795178
 C       -11.6879153719        5.4228534502        6.1210484006
 C       -10.8027164223        6.6351566623        5.8794429331
 C        -9.7140759158        6.3827442705        4.8439662826
 O        -9.4917989256        5.2440008699        4.4808722948
 C        -8.8605398821        7.5595079240        4.3533745019
 C        -9.2646674182        7.9626014861        2.8030567341
 O        -9.7655379510        7.1996562703        2.0155631933
 C        -9.2513402670        9.4559844476        2.3766502199
 C        -9.0127511306        8.7653769152        5.3428107513
 C        -7.3875312815        7.0588220548        4.4020962813
 C       -14.6481317586        3.7005239167        5.0215023396
 C       -12.7412356608        2.5773926797        6.1160869434
 C       -10.2280922844        4.2194392767       -1.0844525739
 C       -11.2599894420        1.8250324890       -1.0846875640
 C        -6.4016699105       -2.5659452232        0.4513919293
 C        -5.1813081561       -0.5110520054        1.3446627344
 C        -9.8598078330        0.3528738364       -6.0512847450
 C        -7.3419406913        0.8021966199       -6.1225145636
 C       -10.0663677881        8.4460311013       -6.5437245256
 C        -8.8087782143        7.6141357848       -4.5092723057
 H       -12.1887730764        6.6067631132       -6.8659750738
 H       -12.9217236351        8.0383942217       -5.9071725753
 H       -13.1372745330        6.3785816515       -5.4041888125
 H       -10.6280863643        4.2195489874       -5.2214939294
 H        -9.2497504111        5.0014865553       -4.3481335037
 H        -7.6395219906        3.7782829392       -5.7715464041
 H        -8.8742933750        3.2116548413       -6.7898214989
 H        -6.6852631562        0.8856741313       -3.0233759719
 H        -6.2377902172       -0.5457939637       -3.9182586961
 H        -6.4370116564       -1.8329305604       -2.0761139420
 H        -8.1194387012       -1.2812472032       -1.8830919686
 H        -7.3542783997        1.3812211223        1.3390381041
 H        -8.1875785838        0.9155596680        2.7073746917
 H       -10.3556701969        0.5465341835        1.1340169401
 H        -9.1876521474        0.5243380396       -0.0943035641
 H       -12.7457480019        1.4493853070        1.0575998607
 H       -13.6832131650        2.4344591034        0.0900893700
 H       -14.5956150741        2.2235541409        2.4397212441
 H       -14.1206419054        3.9599229481        2.1351456526
 H       -11.1123783507        4.6958816446        6.6394131650
 H       -12.5380721674        5.7968235149        6.6912285276
 H       -10.2780351692        6.9105842594        6.7687232145
 H       -11.4403970497        7.4876537082        5.6235328863
 H        -9.6299857481       10.0839841809        3.1763837299
 H        -9.7836713877        9.6415566733        1.4457402161
 H        -8.1681515699        9.7734545026        2.4813820960
 H        -9.9467408949        9.3502897728        5.1908792793
 H        -8.1300737784        9.4652272732        5.0870937037
 H        -8.9867092200        8.4130879212        6.3868703597
 H        -7.3655930023        6.1823047324        3.8444035780
 H        -7.1541044291        6.8849398812        5.4948473810
 H        -6.6265057832        7.7806602002        4.0308079938
 H       -15.0909657517        2.6877138820        5.2975545380
 H       -15.1671023732        4.0467367690        4.1324314621
 H       -14.9598726130        4.3989341500        5.8159980675
 H       -11.6756768554        2.4065843454        6.1853843504
 H       -13.2692103796        1.5697786184        6.0796134170
 H       -12.9917271248        3.0537661134        7.0354057323
 H        -9.2320531421        4.0870115155       -1.4533866800
 H       -10.2142108376        5.0577232920       -0.4575649785
 H       -10.9093602035        4.4283247263       -1.9043730405
 H       -11.7969855769        2.3270596560       -1.8618496377
 H       -11.8383618458        1.0670740344       -0.5790588733
 H       -10.4489095048        1.2872963364       -1.6139192899
 H        -5.3993530797       -2.9127704488        0.1160793590
 H        -7.1933763382       -3.0005219436       -0.1632386714
 H        -6.5130306894       -2.9841850835        1.4234024464
 H        -4.3533556459       -0.6902099426        0.7573491509
 H        -5.0559005444       -1.0326762986        2.2209348308
 H        -5.2889140691        0.5137134448        1.5911174706
 H        -9.7157189970       -0.7273816467       -6.2249414520
 H        -9.9467197272        0.7983600097       -7.0557367435
 H       -10.7795837195        0.4465281443       -5.5229860504
 H        -7.3039750754        1.4715500938       -6.9693662833
 H        -7.2343510852       -0.2097478702       -6.5053015902
 H        -6.4949626692        1.0510077699       -5.5487398479
 H       -10.8896217064        8.2773161827       -7.2027630865
 H        -9.1873850300        8.6206828720       -7.1499051965
 H       -10.1602374171        9.4183216796       -6.0604927983
 H        -7.8322500089        7.7655744855       -4.8865339000
 H        -8.7160726290        6.8453509899       -3.7125316602
 H        -9.2521853177        8.5929134947       -4.0886850903
 Na      -10.2670780002        5.0121299270        2.3685836676
