117

 C       -12.8673766201        7.0779755116       -5.6373218534
 C       -11.4647852187        7.0717659555       -4.8030215557
 O       -11.4233328606        6.7688920584       -3.6220361560
 C       -10.1036757359        7.2779949273       -5.5807620553
 C        -9.3324456365        5.9569967898       -6.1780260795
 O        -8.7792367450        5.9989664051       -7.2130305787
 C        -9.4981727432        4.6594399551       -5.3176151805
 C        -8.5960275152        3.4445577147       -5.8511912293
 C        -8.7100346231        2.2153491087       -4.8423874974
 O        -8.9076209634        2.4285504094       -3.6542621863
 C        -8.4526174685        0.7607707285       -5.4239132971
 C        -8.2410791512       -0.1509149344       -4.1085725031
 O        -9.2160919887       -0.7902050699       -3.6858571134
 C        -7.0045962154       -0.0710426283       -3.2381873324
 C        -6.9774994641       -1.1032204681       -2.0669432683
 C        -6.4866449798       -0.2995803015       -0.8419810827
 O        -6.2010176967        0.8816329536       -0.9431087024
 C        -6.4423814420       -1.0513320578        0.5636787353
 C        -7.6510394493       -0.6597612193        1.5150724521
 O        -8.3575065968       -1.5705831442        1.9611352319
 C        -8.0615736674        0.7465393662        1.8142573246
 C        -9.2833269014        1.0293543823        0.9567710091
 C        -9.6668592697        2.5068166390        0.8303076821
 O        -9.3040589028        3.3319303939        1.6747903606
 C       -10.6802302275        2.9969067338       -0.2225356057
 C       -12.0189098543        3.3647764976        0.5005055701
 O       -12.2637967804        4.5414435277        0.7559009801
 C       -13.0186968575        2.3463129185        0.8968548010
 C       -13.6292463729        2.6747219268        2.3095640978
 C       -12.6185680055        2.7311577887        3.4917923364
 O       -11.5863858006        2.1601076274        3.4243486592
 C       -13.0436580934        3.4085550222        4.8560476945
 C       -12.3122544861        4.8113132292        4.9689358107
 O       -12.4257245776        5.6119736535        4.0634742636
 C       -11.7607466041        5.3040709504        6.3110893695
 C       -10.9877603962        6.6663726959        6.0506511984
 C        -9.8552550294        6.3984688739        5.0096539743
 O        -9.6537887753        5.2523226031        4.6521790070
 C        -8.9487021051        7.6534786331        4.4857662228
 C        -9.3623421809        8.0232711976        2.9571332230
 O        -9.5460525983        7.1730675360        2.1074950510
 C        -9.1932664622        9.4275932414        2.5642718175
 C        -8.9111500263        8.7516250744        5.5730873968
 C        -7.4877084036        7.1668828620        4.2394654851
 C       -14.5187428820        3.7078019509        4.9688365229
 C       -12.5779530612        2.4559774715        5.9412006651
 C       -10.0442379669        4.2842664947       -0.9026402411
 C       -11.0925330605        1.9077042546       -1.2145312794
 C        -6.4666722172       -2.5859331623        0.3480303840
 C        -5.1513225710       -0.6162760923        1.3118771210
 C        -9.6551727682        0.3058585634       -6.2184194397
 C        -7.1412967203        0.7589872973       -6.3566835627
 C       -10.2827147771        8.1461332804       -6.7548181456
 C        -9.1453831869        7.9196086646       -4.4316858279
 H       -12.7746613702        6.3211626926       -6.4654907317
 H       -13.1466379573        8.0564667042       -5.9994104971
 H       -13.6056634981        6.7215515301       -5.0251745222
 H       -10.4996398894        4.2813176284       -5.3790651318
 H        -9.1165584058        4.8312917673       -4.2923043764
 H        -7.5319710668        3.8152123981       -5.9532630786
 H        -8.8839206124        3.1760578956       -6.8441841567
 H        -6.8472974267        0.9393671490       -2.7820320381
 H        -6.1110609976       -0.2934051291       -3.8208787033
 H        -6.3086557039       -1.9084433437       -2.3629860617
 H        -7.9485872184       -1.5005113323       -1.9508657856
 H        -7.1601970031        1.4372630105        1.6494192108
 H        -8.3111551229        0.9842807436        2.8518284334
 H       -10.1033204715        0.3698329838        1.1303762587
 H        -9.0743365011        0.6961033950       -0.0261119866
 H       -12.6254217248        1.3471560795        0.8895145775
 H       -13.8285080172        2.2065045486        0.1618441576
 H       -14.4393914978        2.0176645662        2.5248873689
 H       -14.1107316045        3.7635550722        2.1432376764
 H       -11.0116342578        4.6214474475        6.8106598143
 H       -12.5871568974        5.5464292759        7.0238472085
 H       -10.6188309643        6.9657907873        7.0445809234
 H       -11.6974108041        7.4351698876        5.6112863345
 H       -10.0158844567       10.0697366223        2.8448040644
 H        -9.1084571784        9.3129720456        1.5292820223
 H        -8.3368728505        9.9402090324        3.0714890644
 H        -9.8554885803        9.1897170159        5.8688374669
 H        -8.1285348098        9.5205703199        5.3049322177
 H        -8.7654865536        8.2742101151        6.4986978102
 H        -7.5525228815        6.2754617173        3.7609312115
 H        -6.8792123390        7.1182578322        5.1547292637
 H        -7.0760775949        7.8152690962        3.4204365707
 H       -15.1769758958        2.9636747493        4.4271050578
 H       -14.7540156097        4.6485030853        4.5897639361
 H       -14.8818742361        3.6522865630        5.9646769991
 H       -11.5536191283        2.2039478422        5.9143995850
 H       -13.1213372857        1.4623747388        5.9663078014
 H       -12.7576768866        2.9301209359        6.8843204840
 H        -9.2950324832        3.8677145123       -1.6179280650
 H        -9.5383924381        4.9222491661       -0.2114341598
 H       -10.8006991779        4.9465922725       -1.4374901689
 H       -12.0414456430        2.1442743145       -1.7014746718
 H       -11.1205051936        0.9136590259       -0.8128754689
 H       -10.2856502262        1.9155261195       -1.9673011038
 H        -5.6566096259       -2.8377216457       -0.3847931204
 H        -7.4542559349       -2.8787643647       -0.0197092144
 H        -6.2828524161       -3.1931875412        1.1747125693
 H        -4.2808238117       -0.9246653636        0.6588240937
 H        -5.0814728026       -1.1095457846        2.3294313799
 H        -5.0482380345        0.4808048744        1.4434958938
 H        -9.5605395179       -0.5664256336       -6.8538244406
 H        -9.9757064673        1.1401476132       -6.8524379809
 H       -10.4971704612        0.1551596075       -5.5479212680
 H        -7.3392197411        1.1440483022       -7.3898488949
 H        -6.6534448841       -0.2591053612       -6.5273460339
 H        -6.3290337480        1.3000062722       -5.8802296431
 H       -10.9355555616        7.6357389877       -7.4295145541
 H        -9.3565827610        8.3402449405       -7.3508582008
 H       -10.7875406638        9.1208389960       -6.5661781515
 H        -8.2318665590        8.0821939596       -4.9461224035
 H        -8.8158208806        7.2913595223       -3.6784602176
 H        -9.6223089975        8.8661428668       -4.0919101842
 Na      -10.6201683451        5.1572278209        2.3650695196
