117

 C       -12.3402557123        6.9730634185       -5.9070613429
 C       -11.1677312179        6.9339004013       -4.9254129842
 O       -11.1888691245        6.4887604390       -3.7979978997
 C        -9.7615359874        7.1542953102       -5.5253914786
 C        -9.4682339917        5.7842387024       -6.2767076932
 O        -9.2030817884        5.8038159750       -7.5060288299
 C        -9.6005133185        4.5920537140       -5.3755349475
 C        -8.8929827904        3.3582616323       -5.8099557761
 C        -9.0166796012        2.3416072944       -4.7033687393
 O        -9.4758739366        2.5075223922       -3.5811995488
 C        -8.5602974352        0.8583452326       -5.1501423694
 C        -8.4413193648       -0.0996013901       -3.8505825420
 O        -9.3135964164       -0.8551943244       -3.5718061216
 C        -7.2117036841        0.0614602899       -3.0406174864
 C        -7.1485168237       -0.9137977767       -1.8587253861
 C        -6.6633023819       -0.2091560909       -0.6362273667
 O        -6.6019087215        1.0222816855       -0.6315100984
 C        -6.3782105446       -1.0061958790        0.7057691644
 C        -7.6027000726       -0.7093678438        1.7109420066
 O        -8.0537386719       -1.5930893924        2.3889853394
 C        -8.1651300039        0.6746714868        1.8558151691
 C        -9.2788460240        0.8420615057        0.7491078183
 C        -9.7533476483        2.3615377202        0.6979715540
 O        -9.1083378719        3.1770679238        1.3206181632
 C       -10.8795650283        2.8726072545       -0.2396066639
 C       -12.0624001410        3.3917282207        0.6511662900
 O       -11.9876720632        4.5291831008        1.0634839898
 C       -13.2928262577        2.5059571042        1.0075966841
 C       -13.9055464543        2.9660934877        2.3387903120
 C       -12.8838725643        2.9587326200        3.4741117238
 O       -11.7011514849        2.5845798540        3.3100071533
 C       -13.2218398762        3.5921072986        4.8825953230
 C       -12.3757953416        4.8992915030        4.8270239038
 O       -12.3131092432        5.5231277909        3.7756491598
 C       -11.6262972744        5.3720233206        6.0900571965
 C       -10.9025355653        6.6307741421        5.7168572941
 C        -9.6951476050        6.4300195192        4.8185837211
 O        -9.3319964892        5.2986173027        4.5296266418
 C        -8.7848555789        7.6667030728        4.3813714479
 C        -9.2837347722        8.0345886554        2.8812752755
 O        -9.7057636616        7.1742510796        2.1224717415
 C        -9.0712626128        9.4553165682        2.3566178198
 C        -8.9360159911        8.9517615592        5.2809541091
 C        -7.3360038980        7.1778502915        4.1700949787
 C       -14.7117174918        3.8592328889        5.1217306664
 C       -12.6178867898        2.6432817730        5.9393720120
 C       -10.2569302993        4.0745713044       -1.0269498257
 C       -11.3001243287        1.7897534976       -1.3274466366
 C        -6.3168048743       -2.5247691350        0.4460180589
 C        -4.9797036271       -0.5728285035        1.3282446671
 C        -9.8789348915        0.3859562834       -5.9245642143
 C        -7.3669471164        0.7468506785       -6.1100587691
 C        -9.5466763433        8.1792804751       -6.6630892279
 C        -8.7275665466        7.5438381444       -4.4278448576
 H       -12.0045671027        6.6011118897       -6.8146067065
 H       -12.5899924568        8.0088720891       -6.0207419390
 H       -13.2302410763        6.3782865599       -5.5076143445
 H       -10.7026066948        4.4128188170       -5.3821898439
 H        -9.3984105512        4.7841768626       -4.3062726850
 H        -7.8656806726        3.6159323890       -6.0499707294
 H        -9.2680104477        2.8836067575       -6.7602086453
 H        -7.4171424430        1.0572105080       -2.5613453519
 H        -6.2334058185        0.0870768251       -3.4903030669
 H        -6.5684269161       -1.7765778927       -2.2074701542
 H        -8.0968000021       -1.3264587712       -1.6449745832
 H        -7.3646637849        1.4380288414        1.7157513164
 H        -8.6362700111        0.7484936393        2.9333421107
 H        -9.9254054197        0.0396853368        0.6663253772
 H        -8.7678935405        0.7660212350       -0.2093601157
 H       -13.0246114285        1.4258095430        1.1776308766
 H       -14.0560561835        2.4616209284        0.2343043270
 H       -14.7209610780        2.1644333358        2.5169259656
 H       -14.2906052594        3.9041868807        2.1811204467
 H       -10.8278870806        4.6295308690        6.3812407443
 H       -12.3827211988        5.5816484128        6.8713936656
 H       -10.5096588374        7.3390971205        6.5211154786
 H       -11.6581667125        7.2712696986        5.2159535624
 H        -9.2727563851       10.1742240376        3.1595473516
 H        -9.9007643268        9.6234824070        1.6561196733
 H        -8.0923977223        9.6873441963        2.0504159121
 H       -10.0052211525        9.1764409514        5.3540011150
 H        -8.4307587850        9.8213925730        4.8790490620
 H        -8.4704944798        8.7655906610        6.3068329549
 H        -7.2996218806        6.6619305838        3.1369205677
 H        -6.9432450373        6.5557688301        4.9163898918
 H        -6.7164190350        8.0279955780        4.2181313963
 H       -15.2472245600        2.9847762702        5.3099425243
 H       -15.1541987797        4.3206869477        4.2088358565
 H       -14.8974687397        4.5923922555        5.9240944281
 H       -11.5591214977        2.4189144039        5.6661531494
 H       -13.1768236736        1.7682982985        5.9563730127
 H       -12.5556701208        3.0174511469        6.9955389411
 H        -9.3869683534        3.7464753644       -1.5815489483
 H        -9.8702717872        4.9070692509       -0.3698788540
 H       -10.9779493345        4.3864636543       -1.7376566559
 H       -12.2298964761        2.0220996675       -1.8204100957
 H       -11.2583550198        0.8255123698       -0.8582652690
 H       -10.6273092715        1.7924977237       -2.1294085986
 H        -5.6934355299       -2.8217820007       -0.3598045596
 H        -7.3081375961       -2.9183160318        0.2417976856
 H        -5.9383679738       -3.0252635110        1.3827607860
 H        -4.1660885525       -1.1622106232        0.8701189296
 H        -4.9660292067       -0.8499233806        2.4035952327
 H        -4.9130154313        0.5961694843        1.2543421290
 H        -9.8104840264       -0.6522910808       -6.2446193664
 H       -10.0503888971        0.9560172157       -6.8374266096
 H       -10.7772292687        0.4545981389       -5.2671238924
 H        -7.5451118515        1.2367473151       -7.0746736463
 H        -7.2318219013       -0.3143132878       -6.2908291923
 H        -6.4364343902        1.3042801170       -5.7802849448
 H       -10.0212984426        7.9433596792       -7.6564537058
 H        -8.5039976533        8.4696254058       -6.7610863262
 H        -9.9622460810        9.1363353129       -6.3382397635
 H        -7.6877485822        7.2159814548       -4.7443401256
 H        -9.0041339250        6.9594367160       -3.5318320400
 H        -8.7176809144        8.5551577116       -4.1875849894
 Na      -10.0898984255        4.8783814199        2.3709057341
