117

 C       -11.6118834562        7.9707578357       -6.3200833963
 C       -10.7225188866        7.3174885824       -5.3386621614
 O       -11.0804256236        7.0744923111       -4.2203705322
 C        -9.2846378408        7.0110893687       -5.8699451323
 C        -9.3834662764        5.4331486219       -6.3809566994
 O        -9.4090620766        5.2225952546       -7.5811218717
 C        -9.5085874301        4.3681280561       -5.3042582927
 C        -9.4040206394        2.9301472995       -5.8645886386
 C        -9.1366917751        1.9222653792       -4.6820023697
 O        -9.1827057421        2.2423395969       -3.5145948872
 C        -8.8848157548        0.3622796111       -5.0217091968
 C        -8.5926411267       -0.4959632268       -3.7296943998
 O        -9.3864067714       -1.2672260467       -3.3161310657
 C        -7.2390896482       -0.2034798956       -2.9655183780
 C        -7.0423758173       -1.0912398443       -1.7190651342
 C        -6.3916863766       -0.2930653888       -0.5550762581
 O        -6.0426441900        0.8884956734       -0.6887653624
 C        -6.2737335902       -1.0064924812        0.7922930396
 C        -7.6582057939       -0.7290541590        1.4837395508
 O        -8.3392023361       -1.7185538517        1.7225648456
 C        -8.1222257742        0.7572859702        1.6672144526
 C        -9.3864450180        0.8935231678        0.8571737488
 C       -10.1549553365        2.2647586533        0.9802546086
 O        -9.7684446584        3.1248381783        1.7273823485
 C       -11.2450325132        2.5409141521       -0.1092100617
 C       -12.4136293238        3.3438549007        0.6678489990
 O       -12.3773528682        4.5333018888        0.7607862660
 C       -13.5606023097        2.5886678726        1.3352552058
 C       -13.9642853153        3.3886711872        2.5842097943
 C       -12.9169790420        3.3636652921        3.6491233923
 O       -11.8279346592        2.7970946138        3.5019151338
 C       -13.1977820655        4.0926935328        5.0367367892
 C       -12.1047674571        5.2957821870        5.0371452771
 O       -11.9171777560        5.9560495910        4.0119768641
 C       -11.3086378858        5.6704421477        6.3156185939
 C       -10.4177457077        6.8221280650        6.0109269388
 C        -9.4725584743        6.6264640152        4.7778312523
 O        -9.3525016613        5.4852322865        4.3483041272
 C        -8.6471876891        7.8444591349        4.0786275180
 C        -9.1176884108        8.0558111476        2.6026054084
 O        -9.6282072229        7.1963883564        1.9001100974
 C        -9.0737508261        9.5242373773        2.0273955444
 C        -8.6578889919        9.1657944300        4.8945615308
 C        -7.1729180054        7.3488949811        4.0755771728
 C       -14.7217293643        4.5448719298        5.2804811229
 C       -12.9500195693        3.0175331029        6.1851498964
 C       -10.6228925666        3.3914899357       -1.1521682624
 C       -11.7607656336        1.2389607720       -0.7862739179
 C        -5.9977539246       -2.5183707995        0.6646828920
 C        -5.2431315077       -0.2905872878        1.7905039463
 C       -10.1612688065       -0.1787076051       -5.6495570960
 C        -7.7453438689        0.3806049934       -6.0510768865
 C        -8.7158965560        7.9540662198       -7.0003590348
 C        -8.2420390579        7.1211991097       -4.6211168091
 H       -11.7186572880        7.2518251461       -7.1021049127
 H       -11.1570530443        8.8316853156       -6.7079715725
 H       -12.6059066582        8.2397014947       -5.8314571013
 H       -10.4363006710        4.3953966154       -4.7262887521
 H        -8.7302367970        4.5272147865       -4.5156989224
 H        -8.7267152386        2.7111583341       -6.7608732334
 H       -10.4013299106        2.7477395640       -6.2087309170
 H        -7.0013532781        0.8430027196       -2.6686809780
 H        -6.4046668141       -0.3202783536       -3.7070131161
 H        -6.5058826485       -1.9678364437       -1.9173422733
 H        -8.0393412195       -1.4134059527       -1.4142794657
 H        -7.3020638681        1.3603036142        1.2380342334
 H        -8.2124516738        1.0750276966        2.7667955260
 H        -9.9655854996        0.0103295938        1.1060797704
 H        -9.0335395083        0.9733840222       -0.1186830076
 H       -13.2310556450        1.5816624521        1.6289194219
 H       -14.3865428297        2.5000015295        0.5789164410
 H       -14.9764100873        3.2124212934        2.8490906263
 H       -13.9332349864        4.4559418874        2.2039980857
 H       -10.6706440722        4.7973668463        6.6198114123
 H       -11.9702548976        5.8123459879        7.1989034074
 H        -9.7752420079        7.2493506741        6.8150684956
 H       -11.1082224536        7.7084018898        5.7913217345
 H        -9.6203227315       10.3276923085        2.5249311425
 H        -9.3042242779        9.7144002000        0.9885119050
 H        -8.0529863668        9.8038134506        2.0100082021
 H        -9.5629973617        9.7832023786        4.9515337673
 H        -7.8912127246        9.7312858858        4.4580842136
 H        -8.5045953418        8.9076652365        5.9486973940
 H        -7.0597915082        6.2809812050        3.6734045275
 H        -6.8446202562        7.3318757897        5.0412452934
 H        -6.5624279696        7.9230903017        3.3964926589
 H       -15.4119881702        3.7465959050        4.9532975410
 H       -14.9061870704        5.5312412750        4.7927434970
 H       -14.8423648226        4.6711195281        6.3737510654
 H       -12.1519359250        2.3410517600        5.9110988850
 H       -13.8581028032        2.3995093012        6.1322620162
 H       -12.9244179545        3.4576288607        7.2018427928
 H        -9.8081441643        2.8840871009       -1.5752180939
 H       -10.3154307380        4.3818246797       -0.8416265313
 H       -11.3451490766        3.5258753706       -1.9181562005
 H       -12.7058540901        1.4222143508       -1.3037472475
 H       -12.0459118649        0.5441752328       -0.0147944500
 H       -11.0156029886        0.8169587143       -1.4093139578
 H        -5.0756041643       -2.6379031805        0.0695632605
 H        -6.8490469038       -3.0178869677        0.2000034010
 H        -5.8074618143       -3.0046979736        1.5922639589
 H        -4.2862162414       -0.4514193219        1.2892079649
 H        -5.3274721599       -0.6993096862        2.8200950008
 H        -5.4030487651        0.8866500925        1.7191217438
 H        -9.9893775075       -1.1789676462       -6.0108356977
 H       -10.4776967132        0.4920738433       -6.4452295731
 H       -10.9268933314       -0.2472000443       -4.8320819889
 H        -8.1859949250        0.7811526113       -6.9538821945
 H        -7.3971751471       -0.6507360170       -6.2233029525
 H        -6.9301320730        0.9614039795       -5.6588695406
 H        -9.2104302813        7.7782252230       -7.9443035368
 H        -7.6618333088        7.6248129902       -7.2371689363
 H        -8.7886926906        9.0217780046       -6.7129763979
 H        -7.3677070873        6.3953567911       -4.7351333556
 H        -8.7294020568        6.7939548717       -3.7398654522
 H        -7.9064923323        8.1315490187       -4.4372805736
 Na      -10.6111898659        5.1037167854        2.2252482591
