117

 C       -11.4968205737        8.0014260662       -6.4811042520
 C       -10.5180827459        7.2524433913       -5.5536060315
 O       -10.9525000869        6.8799761994       -4.4417118978
 C        -9.0987527027        6.8980970900       -5.9685153475
 C        -9.3080967697        5.4083348545       -6.2742625637
 O        -9.5403669657        5.0674091171       -7.4127651854
 C        -9.4039034586        4.3644756929       -5.1407119811
 C        -9.4504867797        2.9099757917       -5.6775231386
 C        -9.1487737985        1.8956044043       -4.5422260470
 O        -9.0721533840        2.3337557760       -3.3988363198
 C        -8.9923221908        0.4069263636       -4.8658625146
 C        -8.5374103106       -0.5091830284       -3.6917351029
 O        -9.3759591272       -1.3297801621       -3.2806261028
 C        -7.1185300900       -0.3407291023       -3.1399801651
 C        -6.9061473036       -1.1569592359       -1.8703017847
 C        -6.3573097266       -0.3124285343       -0.7412882263
 O        -6.0542710112        0.8412873520       -0.8724011342
 C        -6.2699842827       -1.0033563456        0.7241150744
 C        -7.7138840250       -0.8005958619        1.3453627656
 O        -8.4542328162       -1.6964686467        1.5590995881
 C        -8.2280587841        0.7090190452        1.6269695306
 C        -9.5961489443        0.8369175338        0.9330953936
 C       -10.1172554983        2.2389947911        0.9914327002
 O        -9.6728123712        3.1676313417        1.6684116049
 C       -11.3475840889        2.5655124653        0.0320132759
 C       -12.3793394102        3.3728530341        0.8402211303
 O       -12.3164746038        4.6277501653        0.8919092639
 C       -13.6613304521        2.6978378269        1.3999839094
 C       -14.0703704090        3.3799429280        2.7338007369
 C       -12.9688196752        3.3385302118        3.8347066631
 O       -11.9258053403        2.8287762825        3.5543544226
 C       -13.1661754375        4.1190601234        5.2066245847
 C       -12.1868638568        5.3487812451        5.1008818194
 O       -12.2924137579        6.0512450357        4.1115312089
 C       -11.1813014953        5.5864779074        6.2936913158
 C       -10.2973190062        6.8914374282        6.0190530959
 C        -9.4978694240        6.6581671731        4.7292796656
 O        -9.4585345372        5.5608440528        4.2106804243
 C        -8.6782013429        7.8255677656        4.0738021381
 C        -9.1581368938        8.0949412117        2.5083497038
 O        -9.6235750311        7.2202154850        1.8102862605
 C        -8.9512309011        9.4444086519        1.9838020280
 C        -8.6776285837        9.1395264952        4.9066375076
 C        -7.3085873838        7.1583068337        3.8709523930
 C       -14.5743564991        4.8634311322        5.1274306855
 C       -12.9356118538        3.1803040706        6.4135752920
 C       -10.8228716535        3.6384171401       -1.0863820398
 C       -11.9713424292        1.3127332646       -0.6079430893
 C        -5.8353116329       -2.5548280728        0.7000650133
 C        -5.1307471261       -0.3060548400        1.5653991723
 C       -10.1986286292       -0.1438806408       -5.6550286101
 C        -7.7161353051        0.2847284916       -5.8451242147
 C        -8.5153099497        7.6281440077       -7.1739795463
 C        -8.1917378228        7.0181282739       -4.7078583742
 H       -12.0640938139        7.3611777699       -7.1776596304
 H       -10.9543924538        8.8015020590       -7.0166266553
 H       -12.1653824756        8.5365244479       -5.8096393085
 H       -10.3817532637        4.5656919931       -4.6295721773
 H        -8.5987941834        4.4160416973       -4.3748606717
 H        -8.7886861362        2.8120853939       -6.4852871948
 H       -10.4803271518        2.7726779902       -6.1125132074
 H        -6.9322432026        0.7295038072       -2.9316995412
 H        -6.3417954159       -0.5175369565       -3.8710617086
 H        -6.0778859933       -1.9035956972       -2.0961392966
 H        -7.8164173708       -1.6989936415       -1.5819000382
 H        -7.5904511340        1.4642439029        1.2047190349
 H        -8.1530130341        0.8129649276        2.6376136663
 H       -10.3845173784        0.2346758007        1.4034152864
 H        -9.3167614819        0.6199607266       -0.1675817656
 H       -13.5274471101        1.6202189647        1.5786182047
 H       -14.4020162448        2.8275944608        0.6071735241
 H       -14.9616192366        2.7906078659        3.0987970335
 H       -14.5124606978        4.3521555151        2.5084105932
 H       -10.6162120472        4.7447800756        6.6096163370
 H       -11.8221132865        5.7666194573        7.1514005984
 H        -9.6404372256        7.2113122116        6.8316038521
 H       -10.9686201542        7.7103222141        5.8481499688
 H        -9.9487662941        9.8595224889        2.0370430247
 H        -8.7848109141        9.5204016148        0.9277129547
 H        -8.2333893607       10.2508573088        2.2826589812
 H        -9.6931062770        9.5487069528        4.8802156268
 H        -7.9611799214        9.8418572921        4.5113466815
 H        -8.5261784286        9.0083870375        5.9273540617
 H        -7.3787859983        6.1990284217        3.4767881853
 H        -6.7744938684        7.0764942912        4.8943470199
 H        -6.6820947816        7.6764340237        3.1049098679
 H       -15.3006214221        4.0760653872        5.3062359115
 H       -14.6631997500        5.3666083028        4.2194154460
 H       -14.6618344422        5.6285665892        5.8600119625
 H       -11.8639250131        3.0245898408        6.4254271679
 H       -13.4076776387        2.1898712597        6.3223857641
 H       -13.2916460945        3.7096060093        7.2631740232
 H        -9.9338558636        3.2757536001       -1.6808450169
 H       -10.5254330875        4.5743455316       -0.6045762654
 H       -11.6356229853        3.9131183939       -1.8327311077
 H       -12.8387048428        1.6976681798       -1.1602307873
 H       -12.2349404064        0.4587122386        0.0533053331
 H       -11.2626821240        0.9763697870       -1.4105405112
 H        -4.7720407008       -2.5825313150        0.4994098924
 H        -6.4232035234       -3.1369907006       -0.0006139223
 H        -5.9508764450       -3.0481233537        1.6726894610
 H        -4.1973033955       -0.4105096276        0.9777737018
 H        -5.1224968064       -0.8488494040        2.5081068463
 H        -5.3435123099        0.7068345715        1.7214646544
 H        -9.8195336952       -0.9564393661       -6.3100330574
 H       -10.5815939204        0.6754735326       -6.2777223088
 H       -10.9324849789       -0.5429266443       -5.0036978935
 H        -7.9656337407        0.7386611762       -6.8323191386
 H        -7.5033638723       -0.7912906507       -5.9261588207
 H        -6.8770739964        0.8424475348       -5.3724973105
 H        -9.0778320565        7.1796194593       -8.0242725066
 H        -7.4509854929        7.4674271184       -7.3398579463
 H        -8.6663672146        8.7219260038       -7.1394335291
 H        -7.2947642854        6.5221401605       -4.8082832959
 H        -8.6162428047        6.5739980356       -3.7880773625
 H        -8.0369316857        8.1007960475       -4.5574227664
 Na      -10.6257409357        5.3011511385        2.3130095063
