117

 C       -11.8540338059        7.9306956544       -6.2278560368
 C       -10.8292659360        7.3571364706       -5.2224447664
 O       -11.1956468326        7.2592272390       -4.0607859344
 C        -9.3895404290        7.0212775500       -5.6862702544
 C        -9.4633703152        5.5444205422       -6.3788499237
 O        -9.2049618568        5.3760340555       -7.5318464904
 C        -9.4849075645        4.3870602689       -5.3475858195
 C        -9.3184728670        2.9839819896       -5.9153769831
 C        -9.1154329948        1.9164722610       -4.8185821319
 O        -9.1634009656        2.1822265039       -3.6363290318
 C        -8.8620074051        0.3713989772       -5.2207800960
 C        -8.5609067089       -0.2358496154       -3.7650635371
 O        -9.3665640739       -1.0690120670       -3.3024897217
 C        -7.3014073397        0.0863141706       -2.9626732127
 C        -7.1481885980       -0.8059009453       -1.6931033556
 C        -6.3922636038       -0.1938794978       -0.4883040030
 O        -6.0227705241        0.9536936008       -0.5700360184
 C        -6.3043148408       -0.9849091878        0.9282875938
 C        -7.7138465280       -0.7146483020        1.6672581346
 O        -8.4165133087       -1.6435878686        2.0179653453
 C        -8.2342331598        0.7257737144        1.7670129571
 C        -9.3483518240        0.8236294371        0.6629492768
 C       -10.0004157243        2.1055678635        0.8455006900
 O        -9.5736631534        2.8641323458        1.6978952688
 C       -11.1361877934        2.4795652426       -0.1597224999
 C       -12.2903589707        3.3076257190        0.5452216326
 O       -12.2150879235        4.5411041601        0.5725855945
 C       -13.4698171892        2.4821478453        1.2790437925
 C       -14.0869945750        3.2613511129        2.5388999340
 C       -12.9547781615        3.2906840174        3.5921665002
 O       -11.8790773821        2.7862531377        3.3182530220
 C       -13.1376878032        4.0170278304        5.0268396786
 C       -12.2016445797        5.2642307299        4.9451815368
 O       -12.2211462982        5.8396856909        3.8783881716
 C       -11.4396059847        5.7124768356        6.1743269627
 C       -10.4997476597        6.8624841231        5.9036698150
 C        -9.4054052056        6.5584005914        4.7786617879
 O        -9.1121871094        5.4557137211        4.4102548035
 C        -8.6594933858        7.8423258608        4.1864742654
 C        -9.2575640833        8.0796804345        2.7776456792
 O        -9.5753068334        7.0956955550        2.1606331891
 C        -9.0098017878        9.3947072289        2.1551115557
 C        -8.8169669734        9.0323632195        5.1488992980
 C        -7.1174049397        7.5072482944        3.9561007359
 C       -14.5231637008        4.6502641136        5.2532745580
 C       -12.6312973806        2.9193938728        6.0481187097
 C       -10.4744142643        3.4470582127       -1.2212635321
 C       -11.7897723966        1.2583835332       -0.8067057808
 C        -6.0760606579       -2.4841079465        0.8009789444
 C        -5.0888298525       -0.3476194028        1.6501135459
 C       -10.1660922451       -0.2884674319       -5.8128679237
 C        -7.7095980571        0.2153639866       -6.2267215964
 C        -9.0084294694        8.0283118834       -6.8695588009
 C        -8.3439621529        7.0373828867       -4.5825064118
 H       -11.7430402588        7.6521775142       -7.3048905634
 H       -11.6967707601        9.0515582570       -6.1015816921
 H       -12.7656390208        7.7294445289       -5.8225969683
 H       -10.3872418593        4.4488254576       -4.7128262666
 H        -8.7738247478        4.4643979822       -4.5158437482
 H        -8.4856953006        2.9267345113       -6.5460360361
 H       -10.1855905109        2.6794559673       -6.5550875344
 H        -7.4281833850        1.1023773834       -2.6356595037
 H        -6.4052600120        0.1694513182       -3.5236039575
 H        -6.7491999522       -1.8414857548       -1.9952924554
 H        -8.1707877421       -1.0829633482       -1.3541158281
 H        -7.4130720376        1.4078040282        1.5601439277
 H        -8.6703676175        0.9813315149        2.7160941513
 H       -10.0305261875       -0.0085298917        0.8331617657
 H        -8.9162246265        0.9289307321       -0.3876203978
 H       -13.1118003542        1.4984255578        1.6066124282
 H       -14.2431601091        2.3681940373        0.5562004005
 H       -14.9720332760        2.5879891285        2.8616026629
 H       -14.4699115039        4.1772893836        2.1859326252
 H       -10.8951558683        4.9025343898        6.6534638142
 H       -12.1920011691        6.0022131049        6.9151408564
 H        -9.9510737740        7.2343957050        6.7646357789
 H       -11.0545195962        7.7320138252        5.6902290974
 H        -9.5403041663       10.1058496819        2.7834127260
 H        -9.4579228481        9.6572695460        1.1869039848
 H        -7.9520546010        9.7420939246        2.0795722133
 H        -9.8801407242        9.2752736794        5.2426588212
 H        -8.3622180046       10.0278824932        4.7796066030
 H        -8.5816730467        8.7104180754        6.1820586894
 H        -6.9515872166        6.7995872097        3.1964135282
 H        -6.6892997074        7.0140604321        4.8802205803
 H        -6.6146543673        8.4193341764        3.6697978728
 H       -15.2433113599        3.8622251132        5.1089842150
 H       -14.6544804904        5.3998737142        4.4606830719
 H       -14.6462391542        5.0463696493        6.2717772431
 H       -11.6634075001        2.5366679250        5.6791669523
 H       -13.3063985927        2.0950934208        6.1242548918
 H       -12.5731768136        3.3815312058        7.0271586512
 H        -9.4850988103        3.1248240625       -1.5650465491
 H       -10.3512328148        4.4003442198       -0.6947751510
 H       -11.0867951985        3.6666892532       -2.0814445330
 H       -12.5772316036        1.5240591245       -1.5020966286
 H       -12.3920327704        0.6159977058       -0.1258594565
 H       -10.9549501340        0.6903417777       -1.2387649710
 H        -5.4501309873       -2.7095112662       -0.0377887802
 H        -7.0279344446       -3.0053174296        0.7224833012
 H        -5.5693518628       -2.8989487844        1.7113927318
 H        -4.2037917123       -0.7786344885        1.2890558645
 H        -5.2489934367       -0.5673652079        2.6552465716
 H        -5.0261489937        0.6223233351        1.4674378497
 H       -10.1035811744       -1.3643233851       -5.6075017052
 H       -10.1899736583       -0.1047201334       -6.8830632218
 H       -11.0599702195        0.1132809412       -5.3864517299
 H        -8.0675846716        0.6005140991       -7.1524105187
 H        -7.4478025315       -0.7928116333       -6.3376520328
 H        -6.8244682123        0.6714957023       -5.7894326639
 H        -9.6831889444        8.0406935360       -7.7363968426
 H        -8.1088682891        7.7536412400       -7.3258585823
 H        -9.0093254932        8.9936745408       -6.4290679479
 H        -7.4093056944        6.7535265341       -5.0031093199
 H        -8.6084502510        6.3666819718       -3.6932540401
 H        -8.2488777749        8.0518032387       -4.1683814425
 Na      -10.5935362020        4.9825397650        2.2717264687
