117

 C       -11.5774813596        7.9960669009       -6.4174086438
 C       -10.5898667079        7.3243055490       -5.4102150734
 O       -10.9332552353        6.9414990960       -4.3192043447
 C        -9.1644474548        6.8847999121       -5.9350414685
 C        -9.3395032612        5.3752310357       -6.3863190335
 O        -9.5119869845        5.0534786866       -7.5231808018
 C        -9.4996621732        4.4027024657       -5.2625944394
 C        -9.4768308148        2.9500130131       -5.7152479302
 C        -9.2175842364        1.9828301802       -4.6157434342
 O        -9.1490123899        2.3756199693       -3.4780368137
 C        -8.9480806079        0.4353331023       -4.9925112315
 C        -8.5611218227       -0.4497612088       -3.6457881128
 O        -9.2871505853       -1.3596043334       -3.2549211966
 C        -7.2083552248       -0.3203960657       -3.0643458498
 C        -6.9698825401       -1.1790514792       -1.7652761460
 C        -6.3323088451       -0.3581241813       -0.6372281900
 O        -6.0934371862        0.8154452750       -0.8257469496
 C        -6.1939080534       -0.9994193163        0.7639776288
 C        -7.6664344643       -0.7582787875        1.4279275116
 O        -8.4488185184       -1.6707734787        1.6605148029
 C        -8.1690726870        0.6803357796        1.6531678707
 C        -9.4644562554        0.9235678883        0.8826526712
 C       -10.1230819397        2.3191824502        0.9788647253
 O        -9.7029143100        3.1370196578        1.7539004568
 C       -11.3588047348        2.5716392415       -0.0812275440
 C       -12.4712998047        3.3525147890        0.6473927821
 O       -12.3441810598        4.5472668012        0.8407226740
 C       -13.6727826986        2.6342882457        1.3817722980
 C       -14.0188663773        3.4433887168        2.6555485035
 C       -12.9301184979        3.3774225141        3.7024816947
 O       -11.8491338047        2.8179997914        3.5581703089
 C       -13.1966392435        4.0891168586        5.1192238920
 C       -12.2052904573        5.2777824474        5.1605213119
 O       -12.0523050516        5.9125556128        4.1341291024
 C       -11.2610015138        5.6289048715        6.2886857696
 C       -10.3904912236        6.8604722016        6.0268700573
 C        -9.5717327588        6.6601833695        4.7359500406
 O        -9.4135552420        5.5482980487        4.3138517545
 C        -8.6575776556        7.8110026957        4.0504599581
 C        -9.1717284333        8.1485932496        2.5324102483
 O        -9.6109079381        7.2447456645        1.8534081049
 C        -9.0611920735        9.4869667370        1.9134139942
 C        -8.6061374829        9.0812406125        4.8836540658
 C        -7.1924976060        7.2504154172        4.0344226878
 C       -14.6212006154        4.6799972483        5.1509027160
 C       -12.9418687577        3.1360736862        6.2806374287
 C       -10.7067911231        3.4878358326       -1.1428937603
 C       -11.8384559744        1.2519551963       -0.7219125785
 C        -5.8771914141       -2.4493162150        0.6127452807
 C        -5.1829914890       -0.3319810890        1.7286636186
 C       -10.2137121552       -0.1346744191       -5.7448280102
 C        -7.6896642621        0.2706496446       -5.9326025300
 C        -8.6100912586        7.7947976117       -6.9910976323
 C        -8.2590878268        7.1500051609       -4.6435750092
 H       -11.9472916792        7.2824495911       -7.1718687365
 H       -11.0056820820        8.8244267731       -6.9217909458
 H       -12.3316130894        8.4428846814       -5.8952551924
 H       -10.3910952302        4.6185438710       -4.6451605830
 H        -8.6197956299        4.5079005524       -4.5673254196
 H        -8.5800958130        2.7792821913       -6.3503886422
 H       -10.3370052753        2.7565464484       -6.3736054765
 H        -6.9516540571        0.7571426041       -2.7946426102
 H        -6.4660855299       -0.4580947926       -3.8714557151
 H        -6.3507353005       -2.0555707499       -1.9796809321
 H        -7.9230065748       -1.5228181389       -1.4246012860
 H        -7.4088134841        1.3553415976        1.4408117194
 H        -8.3152610275        0.7238349359        2.7290613628
 H       -10.1757939151        0.3569498089        1.4944059785
 H        -9.3214102140        0.6023847531       -0.1826718592
 H       -13.4428325566        1.5588365063        1.6901921987
 H       -14.4895735251        2.6173938849        0.6482386787
 H       -15.0627668444        3.0627602123        3.0561975718
 H       -14.2053146944        4.4293188162        2.3701801248
 H       -10.5626964586        4.7814675095        6.4547093491
 H       -11.7626260379        5.6893408691        7.2350857019
 H        -9.5612455758        6.9707095902        6.7735211600
 H       -10.9451144284        7.8082590705        6.1271330885
 H        -9.8696837270       10.1683436596        2.1445147281
 H        -9.0651423264        9.5211591180        0.8038677497
 H        -8.1476483223        9.9950653583        2.0733332389
 H        -9.4387210434        9.6380310024        4.8199655520
 H        -7.7827046089        9.6290547200        4.4661329245
 H        -8.5398934961        8.9138077108        5.9302457509
 H        -7.0732816195        6.1671706511        3.8515369458
 H        -6.8538320804        7.4223857773        5.0850313244
 H        -6.5473112257        7.7004109795        3.2911891997
 H       -15.2522950006        3.8723926301        5.0290098568
 H       -14.6984113960        5.4441860300        4.3463748739
 H       -14.8564505609        5.1771760994        6.1121161597
 H       -11.8978654242        2.7696899347        6.1362351749
 H       -13.5719471845        2.3017384076        6.2556902708
 H       -13.1086044064        3.7231930788        7.2115407686
 H        -9.8767744972        2.9368997015       -1.6039738238
 H       -10.3096709016        4.4595178005       -0.7359316790
 H       -11.3896851362        3.7452658414       -1.9213320902
 H       -12.8315827366        1.5090310680       -1.1123460730
 H       -11.9930307369        0.4370103211        0.0039184398
 H       -11.2106101262        0.9434492224       -1.5179319209
 H        -4.8719492740       -2.5476046584        0.3085724786
 H        -6.5713036353       -2.8713956358       -0.0928285378
 H        -5.9750338217       -3.0704497390        1.5459670640
 H        -4.1664328150       -0.4039098705        1.1920616883
 H        -5.2465293229       -0.8633351473        2.7731403623
 H        -5.4290599555        0.7253621885        1.7875241370
 H        -9.9712600997       -1.0341099669       -6.3150532064
 H       -10.6858152516        0.6212957446       -6.3627989911
 H       -10.8782620962       -0.4419568042       -4.9106413522
 H        -8.0298964521        0.6442700272       -6.9081832380
 H        -7.4696148836       -0.7913481219       -5.9912890846
 H        -6.7908077765        0.8527835207       -5.5326536229
 H        -9.1154075281        7.4577052180       -7.9622883065
 H        -7.5425070600        7.6185831788       -7.1719783554
 H        -8.8082326661        8.8551977471       -6.7881917871
 H        -7.3470389016        6.5763709389       -4.4691940646
 H        -8.8700192370        6.9567463434       -3.7309369517
 H        -8.0836184019        8.1685665959       -4.6611149851
 Na      -10.6080592861        5.2384189282        2.2675876854
