117

 C       -11.9711173698        7.8681177555       -6.1338497133
 C       -10.9635604183        7.4011429522       -5.0931049336
 O       -11.1336028715        7.2476821961       -3.9300055336
 C        -9.4626430422        7.0241167236       -5.7273219473
 C        -9.3379235571        5.5212461031       -6.3126580956
 O        -9.2086646949        5.2595094359       -7.5045804524
 C        -9.4929857431        4.3539492761       -5.3367408283
 C        -9.2720204994        3.0587107173       -6.0250562476
 C        -9.1192108393        1.9601371353       -4.9571871410
 O        -9.2091087345        2.3087742302       -3.7961730055
 C        -8.8376476625        0.3957910969       -5.2189321160
 C        -8.5670739296       -0.2340957811       -3.7292212234
 O        -9.3313963470       -1.0043365778       -3.2692558797
 C        -7.2860866805        0.1917314484       -2.9180935234
 C        -7.1990685483       -0.7983538306       -1.7092860856
 C        -6.5365925499       -0.1697863158       -0.4756499686
 O        -6.0165878442        0.9426325958       -0.5339623147
 C        -6.3408359162       -0.9759739302        0.9206940169
 C        -7.6115043927       -0.7347007906        1.6995758004
 O        -8.2960936473       -1.6737311020        2.1535141328
 C        -8.2160379439        0.6403964819        1.8094021558
 C        -9.2559138505        0.7608099080        0.6537541845
 C       -10.0154594116        2.1329327598        0.8366944083
 O        -9.6319101815        2.9723654812        1.5912277415
 C       -11.1834775649        2.5442018220       -0.1910114923
 C       -12.2927544739        3.3370463286        0.5906493124
 O       -12.2721314401        4.5322944797        0.7091486106
 C       -13.4620879264        2.5558946718        1.1654801900
 C       -14.0287060737        3.1766548800        2.4989524685
 C       -12.9600296462        3.1896909840        3.5205530688
 O       -11.7991861523        2.8050298365        3.2615406990
 C       -13.1116648714        3.9154013823        4.8922190393
 C       -12.2282801987        5.2125533132        4.8297396013
 O       -12.2447595067        5.9368243570        3.8372219785
 C       -11.4565128704        5.6205197544        6.0676998660
 C       -10.5348790720        6.7949046431        5.7954732219
 C        -9.3907112011        6.5255195049        4.9021857933
 O        -9.1476929382        5.4077838040        4.4711237366
 C        -8.6674102895        7.7958585539        4.3131945394
 C        -9.1771049877        8.0586809339        2.7493554733
 O        -9.6838356609        7.1273161699        2.1442662735
 C        -9.0691139680        9.4020326047        2.1044011476
 C        -8.7438328414        9.0084583180        5.2885370801
 C        -7.1468712090        7.6129689437        4.0657979012
 C       -14.5035387173        4.5459367405        5.2407747284
 C       -12.5622751778        2.9805052236        6.0385175323
 C       -10.4728312340        3.3918465556       -1.2354825772
 C       -11.7084942527        1.3075049414       -0.9752387976
 C        -6.1113884428       -2.4868630885        0.6757535780
 C        -5.0877186820       -0.3767174187        1.6461094359
 C       -10.0679829514       -0.2143211981       -5.9020892830
 C        -7.7019906726        0.0971648659       -6.1283088009
 C        -9.0287425929        8.0733193055       -6.8065258958
 C        -8.5398006738        7.1836940827       -4.5408740445
 H       -11.6336541900        7.5379598156       -7.1081326485
 H       -11.8870205671        8.9676511179       -6.1131878211
 H       -12.9966456211        7.5652990036       -5.8210899638
 H       -10.4762998816        4.4522961096       -4.8935313076
 H        -8.9676997846        4.3184077622       -4.3578527404
 H        -8.4140437963        3.1509059867       -6.7131206683
 H       -10.0936049748        2.7583653222       -6.6545184988
 H        -7.3605938063        1.2683638931       -2.6271868012
 H        -6.3351157728        0.1671078833       -3.4414073955
 H        -6.6069752999       -1.6877355082       -2.0692025309
 H        -8.1695808198       -1.2803412655       -1.5093189012
 H        -7.5093732718        1.3525423511        1.6309355750
 H        -8.6737540591        0.7869506468        2.7627940357
 H       -10.0168539802       -0.0729939743        0.7677042977
 H        -8.7027064318        0.8149026526       -0.3345314004
 H       -13.2658397378        1.4635069643        1.3011632790
 H       -14.2207681305        2.7046615261        0.3945619615
 H       -14.9775809445        2.5713952736        2.7848260337
 H       -14.2842028521        4.1771915481        2.2565654074
 H       -10.8430092453        4.8326256631        6.5074329892
 H       -12.1278631671        5.9329717410        6.8197902843
 H       -10.1447154613        7.2121198286        6.7091327693
 H       -11.0394769262        7.6784276866        5.4818234819
 H        -9.7886344540       10.1676191891        2.4550000119
 H        -9.4091753286        9.3046166731        1.0298582911
 H        -8.0990434687        9.8544632091        2.0385487187
 H        -9.7013921079        9.4733688768        5.3182584617
 H        -8.1166688640        9.8047656819        4.9323684862
 H        -8.5136329675        8.6664741423        6.3226035324
 H        -7.0014709758        6.8238108168        3.2023191112
 H        -6.6232077026        7.1508529398        4.8767077408
 H        -6.7094375221        8.5721354281        3.7591754801
 H       -15.1492159652        3.7856751481        5.4898525463
 H       -14.8862650361        5.0356059025        4.3379949207
 H       -14.4221242913        5.1898577789        6.1029619784
 H       -11.4721660207        2.8452196344        5.9429424605
 H       -13.0053023306        2.0417894676        6.1117949734
 H       -12.8349331542        3.5612676121        6.9407623150
 H        -9.6324159662        2.7491523435       -1.5537840336
 H       -10.0243134091        4.3942862842       -0.8703067048
 H       -11.0634427536        3.6276934043       -2.1212859133
 H       -12.7056145816        1.5457869941       -1.4027849980
 H       -12.0899458102        0.5631265238       -0.2595928876
 H       -10.9709876472        0.8880512486       -1.6368188002
 H        -5.3845221710       -2.7158305280       -0.0793465974
 H        -7.0428492868       -3.0192932316        0.4720105839
 H        -5.7679458742       -2.8923287698        1.6582776397
 H        -4.1955089752       -0.7367556779        1.2496579818
 H        -5.2398090682       -0.6635019535        2.6565442626
 H        -5.0847579352        0.7663944994        1.5256422558
 H       -10.0806852945       -1.2744610743       -5.7388143044
 H       -10.0738905822        0.0112065692       -6.9493492375
 H       -10.9670078318        0.2685133301       -5.4596074995
 H        -7.9855839279        0.5048862307       -7.0852445558
 H        -7.6092303218       -0.9746874993       -6.2348317148
 H        -6.7458572045        0.4134663075       -5.6690255370
 H        -9.4557783019        8.1940234791       -7.7978097269
 H        -8.0246804593        7.7894933915       -7.0424539846
 H        -9.0580466238        8.9979483674       -6.2863045925
 H        -7.4527452322        6.9856872458       -4.7586748017
 H        -8.9212355682        6.6112212211       -3.6935106952
 H        -8.5835298441        8.1806125327       -4.2284447107
 Na      -10.5313957855        4.9229632329        2.3803545774
