117

 C       -11.2051786615        8.1006090366       -6.6626073941
 C       -10.4737965134        7.2196304023       -5.6434398375
 O       -11.0156798090        6.9026514426       -4.6283179452
 C        -9.0099803697        6.7488079960       -5.9764279273
 C        -9.2583186180        5.2029280681       -6.2723979995
 O        -9.5685247802        4.7993555753       -7.3586731522
 C        -9.1389537888        4.3371265382       -5.0653092282
 C        -9.5032189066        2.8288914787       -5.3635665059
 C        -9.1059205694        1.7826253183       -4.4044742313
 O        -8.8446297461        1.9903189605       -3.2451975641
 C        -8.8408251749        0.3364050070       -4.9734212944
 C        -8.4820655442       -0.5717878297       -3.7201274044
 O        -9.3828027155       -1.1557848744       -3.1555310158
 C        -7.0710235874       -0.4560770369       -3.1765229095
 C        -6.7697346770       -1.2837878739       -1.9182691275
 C        -6.3443846748       -0.3845256537       -0.7377178140
 O        -6.0594964998        0.7772907978       -0.9668593049
 C        -6.2153060488       -0.9719960180        0.6882487807
 C        -7.7324375060       -0.7498236528        1.1593669427
 O        -8.4252739425       -1.7481006844        1.3794279398
 C        -8.2498719015        0.6678717150        1.3801955670
 C        -9.7124281773        0.8444039475        0.9528159902
 C       -10.1375928357        2.3359869563        0.9862261249
 O        -9.4975144017        3.1540611435        1.6142453027
 C       -11.4277185737        2.7357521904        0.1142770441
 C       -12.5374772351        3.5008806416        1.0376778987
 O       -12.4700317687        4.6560441765        1.3070930443
 C       -13.7099416779        2.7092989461        1.6059192147
 C       -14.1991974086        3.2523289000        2.9368400951
 C       -13.0561026376        3.4732479591        3.8543064933
 O       -11.9951696146        2.8420910223        3.7396350445
 C       -13.2555906910        4.3627724959        5.2094546026
 C       -12.2639554265        5.5794461134        5.0828900914
 O       -12.3463690572        6.3549936277        4.1212139256
 C       -11.2226351704        5.7022431955        6.2067207489
 C       -10.3355627788        6.8609667849        5.8419484733
 C        -9.5225832558        6.6025473081        4.5851582149
 O        -9.4211354398        5.4589656317        4.1735828178
 C        -8.6896345488        7.7650728924        3.9965332511
 C        -9.0952373747        8.0924466191        2.4853762894
 O        -9.6890520611        7.2950313509        1.7954631031
 C        -8.8585133768        9.4644234076        1.9497508591
 C        -8.6631847373        8.9726961691        4.9534054770
 C        -7.2032871354        7.3803182883        3.6930851539
 C       -14.6797329332        4.9085530764        5.4309420262
 C       -12.9770520706        3.4075645809        6.3811636175
 C       -10.8950677914        3.6602814688       -1.0083559956
 C       -12.1963708757        1.5012220893       -0.5869241064
 C        -6.0182813654       -2.5251118015        0.6608025533
 C        -5.1703645145       -0.1163879219        1.4375763185
 C       -10.2364512440       -0.2034219493       -5.5701426761
 C        -7.7978175056        0.4174708141       -6.0646520574
 C        -8.5039119160        7.3475137758       -7.2325447561
 C        -7.9732715357        7.0689229822       -4.9115043356
 H       -11.5738082625        7.3874556171       -7.4112576885
 H       -10.5401537955        8.8479711927       -7.1234732314
 H       -12.0040639293        8.5987606600       -6.1989473441
 H        -9.7935681503        4.8050600559       -4.3448056805
 H        -8.0556192766        4.3705132762       -4.8072398659
 H        -9.0519309216        2.6884499700       -6.3951945810
 H       -10.5438873221        2.7649245961       -5.5443488190
 H        -7.0023216569        0.5913995767       -2.8713909734
 H        -6.2603629573       -0.5213275258       -3.9131264292
 H        -6.0015799722       -1.9994117796       -2.1293414190
 H        -7.7327127301       -1.7917342643       -1.6553477466
 H        -7.5080727372        1.3585965420        0.9138050367
 H        -8.1295611977        0.8760522397        2.5482045870
 H       -10.3116620420        0.3293375178        1.7044689184
 H        -9.8425425259        0.4504838925       -0.0129877589
 H       -13.3666983120        1.6698718556        1.7757794914
 H       -14.5051700780        2.6439734414        0.8756308977
 H       -15.0135497966        2.6646287517        3.3945537321
 H       -14.7608282502        4.1671124562        2.7821169211
 H       -10.6382110714        4.7440092398        6.3179342100
 H       -11.5608463518        5.8727044858        7.2414979498
 H        -9.7699342922        7.0354574009        6.7713886988
 H       -11.0078080849        7.7293142400        5.6158434804
 H        -9.6596509234       10.1990529832        2.0135486415
 H        -8.5617561530        9.5651326491        0.8837641012
 H        -8.0617573853        9.9626773980        2.3744837083
 H        -9.6388585673        9.4378396124        5.1369620150
 H        -7.8662394889        9.7266674826        4.6681235527
 H        -8.3050062321        8.6128259195        6.0140028193
 H        -7.1396414072        6.7884281278        2.7397098077
 H        -6.6533422399        6.8786722696        4.4494318512
 H        -6.6551441038        8.2527743810        3.4440467662
 H       -15.4223511081        4.1601859783        5.5252051053
 H       -14.8098547170        5.7698805128        4.7207107753
 H       -14.6078782379        5.4644331334        6.3861156092
 H       -12.0362189735        2.8914180529        6.1882506682
 H       -13.7561057739        2.7014100504        6.3041390297
 H       -13.0472432048        3.9401408891        7.3484156432
 H       -10.3227039987        3.1048771864       -1.7177830295
 H       -10.2477222862        4.4818779457       -0.6456924329
 H       -11.7066453459        4.0830893492       -1.5123735821
 H       -13.0692706472        1.8663619632       -1.1844175822
 H       -12.4014795902        0.7675848697        0.2089797896
 H       -11.5877103369        0.9915540237       -1.3126335112
 H        -5.1110894349       -2.8793026947        0.1965771926
 H        -6.9270474939       -2.9857247153        0.2876513427
 H        -5.9465005324       -2.8438509837        1.7073989533
 H        -4.1894402173       -0.1616460513        0.9938149547
 H        -5.1036243006       -0.4013501502        2.4989516348
 H        -5.6165827171        0.8345860961        1.4096840583
 H       -10.2047970931       -1.2452398650       -5.7627282565
 H       -10.4617133144        0.3480754435       -6.4545616230
 H       -10.9933983547       -0.0254160768       -4.7721661859
 H        -8.2842737003        0.8640708036       -6.8911458115
 H        -7.5078871344       -0.5763489182       -6.3020058650
 H        -7.0097230299        1.1115201253       -5.8282820231
 H        -9.2086041297        7.1901157464       -8.0540984937
 H        -7.4925937222        7.0178914080       -7.3892224567
 H        -8.3070471727        8.3764615494       -7.0381603945
 H        -6.9873016435        6.5445471300       -5.1886157443
 H        -8.2065921079        6.6089902728       -3.9569367751
 H        -7.8027604354        8.1235460538       -4.8496008077
 Na      -10.6500500113        5.0869442507        2.3557757560
