117

 C       -10.9154056764        8.2236831046       -6.8638589574
 C       -10.2814375222        7.2598603193       -5.8156974533
 O       -10.8500651897        7.0129024947       -4.7528394132
 C        -8.8880528343        6.5828745649       -6.2634631106
 C        -9.1393445116        4.9837466879       -6.3281577978
 O        -9.4958960744        4.5103571181       -7.3797596065
 C        -8.9029284813        4.1032026810       -5.0468169153
 C        -9.7372013876        2.8023163006       -5.0907893623
 C        -9.0262098128        1.7447538168       -4.1882398643
 O        -8.6234467012        1.9268750017       -3.0675205470
 C        -8.8506421044        0.1954525308       -4.8098866038
 C        -8.3964507826       -0.6795928016       -3.6160204066
 O        -9.2869290379       -1.2322333766       -2.9152650050
 C        -6.9107508995       -0.9358794000       -3.3973561930
 C        -6.4691797163       -1.4426958641       -2.0743728363
 C        -6.2511940484       -0.4005170725       -0.9824205737
 O        -5.9800291000        0.7346180490       -1.1874208669
 C        -6.3907888185       -0.8972291118        0.5294991124
 C        -7.9096780034       -0.6499051525        0.9196572949
 O        -8.5505645389       -1.6219130837        1.1872085218
 C        -8.3725072533        0.7786976957        0.9670582919
 C        -9.8624938392        0.9106299307        0.6602882575
 C       -10.3838742741        2.3127302767        0.9494124473
 O        -9.8220466051        3.0790012792        1.7531028067
 C       -11.6539750901        2.7654554172        0.1888969585
 C       -12.6653521784        3.3484745476        1.2073082240
 O       -12.6520245980        4.5179620673        1.4894743604
 C       -13.8676457753        2.4994219933        1.8635658904
 C       -14.2803720338        3.2004931855        3.1780489392
 C       -13.1345818885        3.5730932300        4.0802129318
 O       -11.9416436934        3.3508213556        3.8469482172
 C       -13.4196722598        4.4553287680        5.3674735114
 C       -12.3276955259        5.6128174584        5.1237114538
 O       -12.4061454053        6.2559988976        4.0971256839
 C       -11.1417524905        5.8572402304        6.0997445184
 C       -10.2734093876        7.0804221611        5.7777833143
 C        -9.1637780986        6.7237212282        4.7458294739
 O        -9.0033101791        5.5646972926        4.4452345499
 C        -8.4084613454        7.8167701698        3.9659730459
 C        -9.2183489156        8.1397837916        2.5298408292
 O        -9.9643063749        7.2814274695        2.0877086567
 C        -8.9379653180        9.2971926346        1.7579667174
 C        -8.2719511497        9.1720948729        4.6829158653
 C        -6.9596810934        7.3493403748        3.6327845072
 C       -14.7843618974        5.1680289141        5.4098061035
 C       -13.2358249386        3.6577508139        6.6804453964
 C       -11.2977809934        3.8582282480       -0.9301647180
 C       -12.3360204151        1.6055845429       -0.6154038799
 C        -6.1810663378       -2.3557138419        0.6790210210
 C        -5.4706313773       -0.0034291721        1.4337737500
 C       -10.2695793792       -0.2411500358       -5.3507221826
 C        -7.8525055017        0.2991112655       -6.0374563229
 C        -8.1807757580        6.9527610805       -7.6149529332
 C        -7.8609249867        6.9717148250       -5.1767794290
 H       -10.5180401765        7.9852464248       -7.8807514223
 H       -10.5748019932        9.2651552980       -6.5651164596
 H       -11.9330926777        8.1644851521       -6.9106427563
 H        -9.3765374986        4.6197251897       -4.2443834951
 H        -7.8382998739        3.8832074784       -4.9599268130
 H        -9.7163875030        2.4774832031       -6.1693616968
 H       -10.7370785105        3.0074510007       -4.8553881840
 H        -6.3809854215       -0.0436507131       -3.6413833791
 H        -6.6365870768       -1.6618121432       -4.1635636241
 H        -5.5114285067       -1.9642978586       -2.2093753712
 H        -7.3113611159       -2.1601942293       -1.7481137406
 H        -7.7220542685        1.4053653822        0.3267221170
 H        -8.1572910900        1.0067783785        2.0801095263
 H       -10.5877322526        0.3483141222        1.2862537595
 H       -10.0536349436        0.5693985353       -0.3326230664
 H       -13.4868028261        1.4974536158        2.0956166548
 H       -14.6467074969        2.3703251566        1.1657416165
 H       -15.1710150290        2.7249414179        3.6760174464
 H       -14.7499060139        4.1233941505        3.0258434339
 H       -10.5186768707        4.9469546531        6.0511904419
 H       -11.5318050283        5.8331299152        7.1027553603
 H        -9.7827187795        7.4194393796        6.6672068793
 H       -10.9673740258        7.7703115557        5.3391485152
 H        -9.1179401802       10.3237274218        2.0454951910
 H        -9.4796088402        9.2294585520        0.7944251590
 H        -7.9056734402        9.4049155650        1.4950435990
 H        -9.1270494712        9.8004445319        4.5453639502
 H        -7.4535768763        9.8371079071        4.2164658579
 H        -7.9515582786        9.0012527013        5.7444795265
 H        -6.9283441469        6.2912399620        3.4248192727
 H        -6.0886819522        7.6255817030        4.2612802178
 H        -6.6878975926        7.8806384603        2.7436006002
 H       -15.5222138245        4.4995353993        5.6448677175
 H       -14.9420384694        5.6875821351        4.4408981275
 H       -14.7446926851        5.8970031574        6.2158612780
 H       -12.1700438710        3.4115049078        6.7885777724
 H       -13.7896196577        2.8117644912        6.5143691693
 H       -13.6694800961        4.1851177689        7.5428101491
 H       -10.5509269148        3.5504054952       -1.7113852220
 H       -11.0020001627        4.8964425030       -0.5459239683
 H       -12.2294258268        3.9720708015       -1.4736626043
 H       -13.2191805195        2.0602731112       -1.1578319534
 H       -12.5782157017        0.7939242193        0.1104705735
 H       -11.6952801994        1.2136104374       -1.3935127687
 H        -5.1886296150       -2.6007840944        0.3614674385
 H        -6.8302879581       -2.8830082694       -0.0102092355
 H        -6.3468813063       -2.6738878543        1.7389653213
 H        -4.4457593510       -0.3224014482        1.3570801618
 H        -5.7546212555       -0.0401619092        2.4397495744
 H        -5.5226435917        0.9221759051        1.0970299952
 H       -10.2186406416       -1.1127263437       -5.9791600673
 H       -10.7625182121        0.5629911788       -5.8628042839
 H       -10.8062031050       -0.5072197880       -4.4077963498
 H        -8.2989679070        1.0580496238       -6.6998094659
 H        -7.9612746450       -0.6353689037       -6.5815791496
 H        -6.7637353009        0.5812592383       -5.8612037038
 H        -8.7674203523        6.4036934610       -8.3922506060
 H        -7.1423675908        6.6950039029       -7.5098822719
 H        -8.2859799101        8.0057376708       -7.8290723666
 H        -6.9477292013        6.3347847109       -5.2978436516
 H        -8.3018328548        6.7039720047       -4.1991174791
 H        -7.4942113775        7.9361600547       -5.2124376938
 Na      -10.6415395786        5.1795310480        2.6083569297
