117

 C       -10.5560484515        7.8251217747       -7.1798233533
 C        -9.7976358062        7.0480182938       -6.1301630645
 O       -10.1509211531        7.0648727805       -4.9864512713
 C        -8.4652433526        6.2462008733       -6.4750691516
 C        -9.0666928921        4.7221023794       -6.3528029866
 O        -9.3807079966        4.0877004567       -7.3557319992
 C        -9.1054228043        4.1202749512       -4.9702445432
 C        -9.5708141340        2.6936759355       -5.1547563714
 C        -9.0820855896        1.6483819971       -4.1352750016
 O        -8.8170561681        1.9415974477       -2.9940894516
 C        -8.9110361807        0.1151821863       -4.6025086203
 C        -8.2955195787       -0.6609052046       -3.3679242832
 O        -8.9627643655       -0.8110483777       -2.3648656487
 C        -6.9404070884       -1.3086032138       -3.4914028235
 C        -6.4189894485       -1.6920617746       -2.0994734298
 C        -6.2134669784       -0.4934665385       -1.0910635758
 O        -5.9330289474        0.5949334746       -1.4886292712
 C        -6.5841441389       -0.7445604304        0.3955988242
 C        -8.0392485222       -0.3619423700        0.5635379928
 O        -8.8706627807       -1.2306054648        0.7112212639
 C        -8.4904203778        1.1148271046        0.3232830877
 C        -9.9381098286        1.2629110994       -0.0939893599
 C       -10.6490644935        2.4152105005        0.5860551730
 O       -10.1322062917        2.9472096096        1.5200369393
 C       -12.0885765985        2.8060758217        0.1473058106
 C       -12.8393997104        3.3390791579        1.4202848126
 O       -12.7785284098        4.5148128443        1.6477345396
 C       -13.5305149235        2.3963508075        2.4813763257
 C       -14.0910483219        3.1541330587        3.7116060219
 C       -13.0058718796        3.8275723026        4.4961385975
 O       -11.8398123156        3.4105433967        4.4379850900
 C       -13.3469041575        4.9892296225        5.4410265889
 C       -12.1568316956        6.0379171547        5.2125858137
 O       -11.9631264071        6.5842018181        4.1366553266
 C       -11.1818509208        6.3709463940        6.2900353403
 C       -10.0230164702        7.3624271199        5.9163585213
 C        -9.2392217700        6.7381141364        4.7933802177
 O        -9.3637290238        5.5541568604        4.4422180800
 C        -8.4094780067        7.7784027136        3.8761205784
 C        -9.2739983803        7.8885090533        2.4951908802
 O        -9.8863276810        6.9265200015        2.0820824841
 C        -9.2006818447        9.1804461102        1.7800613086
 C        -8.1560057313        9.0999174455        4.5994526949
 C        -7.1291220230        6.9844024645        3.5177026093
 C       -14.6996926759        5.6254845700        5.3016364224
 C       -13.2551297279        4.3290238228        6.8752594824
 C       -11.8877421733        4.0043620868       -0.7793869357
 C       -12.7346931317        1.6155326343       -0.6058850149
 C        -6.3073771521       -2.2165121145        0.8587419340
 C        -5.7516494731        0.1401231950        1.3770198049
 C       -10.3725819171       -0.3218441817       -4.9382213171
 C        -7.9494843359        0.0325754773       -5.8126283287
 C        -8.0573937851        6.5893635435       -7.9276043571
 C        -7.4297075922        6.5313934715       -5.4500160151
 H       -11.5759307762        7.3894039547       -7.3418187586
 H       -10.0001987889        7.7734519118       -8.1169299313
 H       -10.7238660845        8.8050172371       -6.9024437848
 H        -9.7993735571        4.6070292186       -4.2794207854
 H        -8.1748630220        4.2153599572       -4.4077584267
 H        -9.4325334132        2.3249134616       -6.1345851987
 H       -10.6673403248        2.7137933815       -4.9037816286
 H        -6.2580089811       -0.6260376363       -4.0184806981
 H        -7.0708440014       -2.2047237202       -4.0975423936
 H        -5.4916351169       -2.2873549260       -2.2048692093
 H        -7.1711968119       -2.3511946477       -1.6928296378
 H        -7.8291934688        1.6509647027       -0.4059971023
 H        -8.3230625394        1.5839894054        1.3595468100
 H       -10.4866288374        0.3712419774        0.1332014354
 H       -10.1148484209        1.2102226031       -1.1654802597
 H       -12.7739243696        1.6813711876        2.7511170317
 H       -14.3733918590        1.8801950035        1.9617611173
 H       -14.6889106352        2.4839189509        4.3207243714
 H       -14.9094047836        3.9444242330        3.3200766114
 H       -10.7377234578        5.4515181723        6.7069921818
 H       -11.6877225046        6.8387977390        7.1879065320
 H        -9.4537240391        7.4831858971        6.8703606509
 H       -10.4410564205        8.3434667811        5.5515281238
 H        -9.9267292964        9.9500211699        2.0953825816
 H        -9.5019505857        8.9454072768        0.7518774827
 H        -8.3984670926        9.8403076038        1.7898407546
 H        -9.0445575633        9.7550400219        4.5368760663
 H        -7.2851366720        9.5501483944        4.0578753664
 H        -7.9589024533        8.9302549903        5.7415301110
 H        -7.4037701303        6.0285053702        2.9744988200
 H        -6.7200239552        6.6403034489        4.3889426577
 H        -6.3720341474        7.4819735704        2.9325105288
 H       -15.4863001450        4.8758240123        5.4296066057
 H       -14.8654869254        5.9872041651        4.2726518620
 H       -14.8177473102        6.3878304775        6.0316181101
 H       -12.2959535215        3.9922833244        7.1377435793
 H       -13.9713352381        3.4838215314        6.8300651099
 H       -13.5697291213        5.0275177446        7.6144411477
 H       -11.1681468056        3.7909203999       -1.5728378641
 H       -11.5454695378        4.9154136052       -0.2378228951
 H       -12.8563565806        4.3323104614       -1.2021132208
 H       -13.8134876966        1.7903544773       -0.6735863318
 H       -12.8156700508        0.8026826057        0.1285475906
 H       -12.1783089279        1.2407456017       -1.4827836139
 H        -5.2518275032       -2.5193870949        0.5984514832
 H        -7.0098124717       -2.9495563196        0.4406807012
 H        -6.4390689971       -2.2422287259        1.9000042103
 H        -4.6908458495       -0.2305694836        1.4055879492
 H        -6.1046059864        0.1287529080        2.4514029885
 H        -5.6313259300        1.1297802876        1.0774320273
 H       -10.4346062487       -1.4002915055       -4.9486946347
 H       -10.6839629052        0.0842693001       -5.9032396194
 H       -11.0074712867        0.0918097258       -4.1556752784
 H        -8.3051033937        0.7278296765       -6.5911324751
 H        -7.9749456764       -0.9714843607       -6.2976935142
 H        -6.9088709050        0.1368436563       -5.6315493111
 H        -8.7234250625        6.1766322363       -8.6048738858
 H        -7.1947362980        5.9310100475       -8.0913651147
 H        -7.8678966876        7.6542776870       -8.0430104609
 H        -6.5959196555        5.8307958683       -5.6142151035
 H        -7.8137864918        6.4513337280       -4.4767778264
 H        -7.1087809526        7.6077781846       -5.5314589443
 Na      -10.6541558591        4.8322752276        2.6379651005
