117

 C       -11.0571166276        8.2391681236       -6.7517503744
 C       -10.3494988023        7.3046784630       -5.8143682757
 O       -10.7960713737        6.9525966399       -4.7384298429
 C        -8.9682315420        6.6497959353       -6.1113684931
 C        -9.1359960730        5.0863133068       -6.2275547322
 O        -9.5163901650        4.5323709589       -7.2505453815
 C        -8.9057613231        4.1942228674       -4.9708542069
 C        -9.7085100845        2.8549640843       -5.1966104250
 C        -9.0775562879        1.7374079574       -4.3432598701
 O        -8.7638375798        1.9265503945       -3.1714756801
 C        -8.8712499893        0.2368613492       -4.9792838909
 C        -8.4587947545       -0.5887056689       -3.7374125561
 O        -9.2585104378       -1.1162984173       -3.0096129575
 C        -6.9210949698       -0.6437526426       -3.4300164192
 C        -6.7451869855       -1.3427640724       -2.0261456772
 C        -6.3488495277       -0.3788787166       -0.8989788693
 O        -6.0357442412        0.7910648337       -1.0606330668
 C        -6.3379175335       -0.9686295337        0.5900545722
 C        -7.7848860649       -0.7325147941        1.0586704913
 O        -8.6332298855       -1.5566564509        1.3205317842
 C        -8.2339789830        0.7847294967        1.1862183430
 C        -9.7381357076        0.9020151598        0.8993012440
 C       -10.3110181816        2.2924262713        0.9846105309
 O        -9.6722064943        3.1358442615        1.5728632342
 C       -11.5874089953        2.7059259252        0.1559566093
 C       -12.6463095405        3.4198897719        1.1173509247
 O       -12.5385701102        4.6216207270        1.3931000353
 C       -13.7601907685        2.5545628199        1.8042318952
 C       -14.3728234355        3.3374436974        2.9938972601
 C       -13.1938897740        3.5255547949        4.0476287928
 O       -12.0625294387        3.1817903152        3.7545527436
 C       -13.4362426530        4.4009349603        5.2890068025
 C       -12.3402593745        5.6164134263        5.1303565210
 O       -12.3979787310        6.2628598235        4.1096348791
 C       -11.2091217837        5.8160375663        6.1890881911
 C       -10.1797519298        6.9529302191        5.7724354416
 C        -9.3460726736        6.6502683927        4.5780338512
 O        -9.1062020707        5.5106042331        4.1970677528
 C        -8.5335957138        7.7802683025        3.9291991888
 C        -9.1350356514        8.0850095413        2.5513724451
 O        -9.8852605583        7.3239087951        1.9539550026
 C        -8.8512354792        9.4331553311        1.8825941115
 C        -8.5301883179        9.0918103647        4.7636133998
 C        -7.0675218698        7.3084445003        3.7208828052
 C       -14.8646919433        4.9459396660        5.4055547282
 C       -12.9935931759        3.5306246459        6.5508890081
 C       -11.1071183136        3.8157008547       -0.7389618800
 C       -12.2036392332        1.5081467760       -0.6235548586
 C        -5.8627318137       -2.4356450647        0.6386270605
 C        -5.3625922243       -0.1709386350        1.5663087309
 C       -10.2180454057       -0.1891859993       -5.4690326343
 C        -7.8197072457        0.2134247351       -6.1391044348
 C        -8.4345914684        7.1328887001       -7.5264136446
 C        -8.0765222758        7.0274684277       -4.9089022821
 H       -11.0909105257        7.8673091767       -7.7498178503
 H       -10.6469364637        9.2108290335       -6.6886675852
 H       -12.1457765255        8.2502466744       -6.3345177000
 H        -9.2870640083        4.6741784536       -4.0589680568
 H        -7.8507589108        3.9517412208       -5.0434694683
 H        -9.7116516886        2.7461349176       -6.2469105327
 H       -10.7989169769        3.0531644547       -4.9357980663
 H        -6.3966907390        0.3490992948       -3.5554551156
 H        -6.4774629326       -1.2988019763       -4.2069545392
 H        -5.9453233616       -2.0962751935       -2.0830906838
 H        -7.6845515386       -1.7798669876       -1.8240436638
 H        -7.5197649536        1.4101948790        0.6814957653
 H        -8.2230374619        1.0535475317        2.1755388832
 H       -10.2240648935        0.2500689220        1.6578811238
 H       -10.0310300347        0.5076283375       -0.1435099499
 H       -13.3641243185        1.5804848822        2.1157421512
 H       -14.5565599087        2.3193581751        1.0450678371
 H       -15.2853399622        2.8687231593        3.3477882963
 H       -14.8846948614        4.2858825168        2.6429007311
 H       -10.7585114226        4.8605995150        6.3895001538
 H       -11.6265024899        6.0983059007        7.1711108806
 H        -9.4652041384        7.0131623745        6.6141880630
 H       -10.7503378295        7.8726070988        5.6441606367
 H        -9.4091098129       10.2189362200        2.4050138789
 H        -9.2077530578        9.6194241128        0.9002874126
 H        -7.8292891331        9.9024206660        1.8324841198
 H        -9.5455286272        9.4783612442        4.8820231979
 H        -7.9859613729        9.8322267569        4.2854922229
 H        -8.0566976527        8.9806951711        5.6676023329
 H        -7.0127112044        6.3760325018        3.1675638817
 H        -6.6618256800        7.1199277528        4.7318352057
 H        -6.3272357032        8.0612971014        3.3254892105
 H       -15.4837004022        3.9961539199        5.3454010809
 H       -15.0403343063        5.6906457633        4.6713174606
 H       -15.0662110689        5.3842965628        6.3741197339
 H       -12.0542066443        3.0259678942        6.3605147488
 H       -13.8434307300        2.8166527568        6.7895172047
 H       -12.9373586320        4.2410621853        7.3478999413
 H       -10.3120945584        3.5536183475       -1.4174381886
 H       -10.6939838463        4.5090296992       -0.0746751040
 H       -11.8879671007        4.3355193463       -1.3321669534
 H       -13.0657642820        1.8680981835       -1.0691313409
 H       -12.3089992310        0.6896906572        0.0274589713
 H       -11.6224683206        1.1968044986       -1.4881828146
 H        -4.9415866582       -2.5440832172        0.0325147694
 H        -6.6214448037       -3.0970464082        0.2137061224
 H        -5.6256954966       -2.7352882572        1.6428503529
 H        -4.3731728774       -0.6008057111        1.3389530160
 H        -5.5879875194       -0.4748854285        2.6109463409
 H        -5.4525319890        1.0061500358        1.5048137440
 H       -10.1630550789       -1.2900153368       -5.6086122603
 H       -10.3504230747        0.2899500163       -6.4571042637
 H       -11.0009061775        0.0173935340       -4.7867627108
 H        -8.0484764001        0.8573123139       -7.0022289511
 H        -7.6652246738       -0.8372768495       -6.4461308206
 H        -6.9408045730        0.6712998492       -5.7318399180
 H        -9.1345845220        6.8886234094       -8.2993599329
 H        -7.4366295337        6.6697574784       -7.5709636053
 H        -8.1662605598        8.2085274468       -7.5246134827
 H        -7.1480094372        6.5383089304       -4.9003684310
 H        -8.5561016629        6.8214119244       -3.9579047095
 H        -7.8058997111        8.1106627733       -5.0523064572
 Na      -10.4942162610        5.0541854528        2.4110093184
