117

 C       -10.7624295950        8.1388885341       -6.9894920403
 C       -10.0910670594        7.1591497872       -6.0170015302
 O       -10.5736384354        6.9567957485       -4.9503402867
 C        -8.7450053528        6.4656901974       -6.3964173874
 C        -9.0223093610        4.8902586256       -6.3773131667
 O        -9.5725841006        4.3998941690       -7.3296182146
 C        -8.9768681414        4.1926582845       -4.9954413033
 C        -9.6155658988        2.7623009472       -5.0912672493
 C        -9.0492767796        1.7138991186       -4.0883364057
 O        -8.5843291331        2.0645023530       -3.0144556116
 C        -8.9343846769        0.2183350213       -4.6501612473
 C        -8.3302326300       -0.7013453811       -3.5203747360
 O        -9.0538379447       -1.2831751128       -2.8032943187
 C        -6.7985566985       -0.9063517177       -3.5164032892
 C        -6.4505175360       -1.6707266195       -2.1762037002
 C        -6.2022516491       -0.6188995591       -1.0501329151
 O        -5.9979037521        0.5421047556       -1.4266584241
 C        -6.4499627221       -0.8995332952        0.4887014315
 C        -7.9574284608       -0.5785957716        0.8284240664
 O        -8.8015808561       -1.4496474031        1.0355311628
 C        -8.4386605647        0.9326482827        0.8932727219
 C        -9.8821307794        0.9863897697        0.4853262474
 C       -10.6186534774        2.3303092952        0.8773246821
 O       -10.1662068764        3.1029065755        1.6571818526
 C       -11.8992854463        2.7837394493        0.1321806608
 C       -12.8493955986        3.4890997051        1.2304806742
 O       -12.7006401281        4.6642646706        1.4556016781
 C       -13.7088421466        2.5062952398        2.0399681925
 C       -14.1866871139        3.0005130330        3.3581888583
 C       -13.0596363921        3.5996572490        4.2053226062
 O       -11.9631987261        3.0945885794        4.0759983681
 C       -13.2927714368        4.6439261639        5.3363822357
 C       -12.2847698959        5.7882152912        5.2000553838
 O       -12.2808613233        6.4934690702        4.1931914443
 C       -11.1487706069        6.0452909716        6.1787581849
 C       -10.2919524125        7.2290880198        5.6720335820
 C        -9.1443128777        6.8004333216        4.7435927161
 O        -8.8483955119        5.6274669194        4.5369629285
 C        -8.4000282895        7.8832728579        3.9052526396
 C        -9.2388398909        8.0884634892        2.6202019983
 O        -9.9509482344        7.2188764811        2.1487989004
 C        -8.8585473710        9.2919834504        1.7053641214
 C        -8.2409252431        9.1256444560        4.7640376135
 C        -7.0523597583        7.3143470380        3.4113927222
 C       -14.7000950302        5.3631386721        5.2037521812
 C       -13.2043144828        3.8376972761        6.6398219890
 C       -11.3673093854        3.8450649086       -0.8983710650
 C       -12.6750005115        1.6064483699       -0.5554671612
 C        -6.0319238798       -2.3654082883        0.8620939863
 C        -5.5360229695        0.0262057353        1.2478934235
 C       -10.3822174531       -0.3377254182       -5.1353575526
 C        -7.8889375823        0.3005112907       -5.8586527047
 C        -8.1863048635        6.9931092380       -7.7493163805
 C        -7.7352279586        6.7002561801       -5.1972099790
 H       -10.6683613099        7.7822924082       -8.0012020493
 H       -10.2658449968        9.0592160485       -6.8944366137
 H       -11.8740791863        8.2144454751       -6.8153576172
 H        -9.5469214929        4.7765070347       -4.2344727520
 H        -7.9252233702        4.0334439640       -4.7112895549
 H        -9.4976031817        2.4549419660       -6.1084854097
 H       -10.7365072590        2.7957505630       -4.8661510663
 H        -6.1963545468        0.0443166227       -3.5683488130
 H        -6.5684619812       -1.4913023994       -4.4326813116
 H        -5.5275179793       -2.2329389269       -2.3097179499
 H        -7.2559287466       -2.2875570659       -1.9136142039
 H        -7.8431957740        1.5089430318        0.1688650156
 H        -8.2676816011        1.2797144118        1.8952575683
 H       -10.5317046568        0.1271211235        0.7481550959
 H        -9.9435618820        0.8624982975       -0.6284791139
 H       -13.0461593610        1.6478180984        2.2208491421
 H       -14.5184734452        2.1004569427        1.3502585314
 H       -14.5451264093        2.1580135401        3.9049388737
 H       -15.2080929052        3.5877791036        3.3380403661
 H       -10.4852312997        5.1664798248        6.3035980541
 H       -11.6177501047        6.1618295530        7.2015625072
 H        -9.7038352035        7.6322380699        6.5441520445
 H       -10.9921846096        7.9328078764        5.1432463187
 H        -8.9467371609       10.3094179829        2.0826609530
 H        -9.3565145000        9.3475396117        0.7565724133
 H        -7.7979390239        9.4164674478        1.5245153032
 H        -9.2703886487        9.5202900195        4.9635366080
 H        -7.8371950127        9.9563243733        4.2478249144
 H        -7.6430776926        8.8984838179        5.6634811159
 H        -7.2387377581        6.2543150628        3.1154694729
 H        -6.4342365620        7.1908919942        4.2334996462
 H        -6.4392934386        7.8892642651        2.7420553862
 H       -15.5511305719        4.5813338375        5.2116956333
 H       -14.7443863489        5.8887817427        4.2430042043
 H       -14.8275512437        6.0067134170        6.0827727215
 H       -12.2333518559        3.3888658166        6.6108417549
 H       -14.0281767915        3.0542935410        6.7125432420
 H       -13.2236182014        4.5421199358        7.4407753849
 H       -10.7444775422        3.2996651963       -1.5521612381
 H       -10.7862867234        4.6067805221       -0.4680728560
 H       -12.1336082814        4.3127446766       -1.5206453447
 H       -13.6760042698        1.9892514841       -0.7495002612
 H       -12.7203374907        0.7048582512        0.0682478065
 H       -12.1626308029        1.3695536261       -1.5178482508
 H        -4.9979455212       -2.6001326172        0.5365210739
 H        -6.6528294917       -3.1301748575        0.4044124468
 H        -6.1060421002       -2.3969411412        1.9020762317
 H        -4.4853960263       -0.2542772624        1.0222611223
 H        -5.6945579207       -0.0874148405        2.3819656929
 H        -5.5670896694        1.1464727170        0.9121886311
 H       -10.2495499959       -1.1232370099       -5.8790864649
 H       -10.8644253157        0.5152215333       -5.6213912393
 H       -10.9335806871       -0.6704738899       -4.2895256291
 H        -8.3233894810        0.7414581657       -6.7531767047
 H        -7.4859435281       -0.6638910742       -6.1850435403
 H        -7.0931642025        0.8831692157       -5.4972864929
 H        -8.9570524672        6.7785342532       -8.4271422954
 H        -7.3130396218        6.3600723494       -8.0242131987
 H        -8.1127500442        8.0922417339       -7.7355070006
 H        -6.8094762604        6.1511591748       -5.2827789685
 H        -8.2318551060        6.5173702996       -4.2684840057
 H        -7.4041867007        7.8061976886       -5.1930652982
 Na      -10.8326988162        5.0197338983        2.8803216149
