117

 C       -10.5822472684        7.8708017619       -7.1366534243
 C        -9.8729852668        7.0941801173       -6.0438219570
 O       -10.3120419151        6.9922191936       -4.9345926446
 C        -8.5221950274        6.2735841959       -6.4295875658
 C        -8.9452050883        4.7822567306       -6.3716290857
 O        -9.4491095042        4.3058211845       -7.3733608999
 C        -9.1210460804        4.0731414654       -4.9912281900
 C        -9.6985590165        2.6409041149       -5.1870437337
 C        -9.0204801400        1.6759099423       -4.0923339468
 O        -8.7850010489        2.0681976163       -2.9557666735
 C        -8.8448044809        0.2347488734       -4.5837015793
 C        -8.3064665669       -0.7049130198       -3.4509305298
 O        -9.0050636649       -0.9661851368       -2.5501464967
 C        -6.8215132198       -1.3465191611       -3.4828686980
 C        -6.4307840966       -1.6976778341       -2.0390370266
 C        -6.2223464902       -0.4857811232       -1.0920696501
 O        -5.9254108727        0.6335319546       -1.5470281247
 C        -6.4741688786       -0.7324825234        0.4341297411
 C        -8.0595935999       -0.4742122512        0.5295397793
 O        -8.8878656922       -1.3372792204        0.8163256398
 C        -8.5127580904        1.0102260450        0.4656082726
 C        -9.9755496280        1.1355554838        0.0553452084
 C       -10.6489581938        2.3795438082        0.7009854949
 O       -10.1074257812        2.9348706152        1.6378335671
 C       -12.0342779710        2.8171895511        0.1512554768
 C       -12.8927624313        3.3487474717        1.3790561563
 O       -12.9323784535        4.5254652544        1.6570350270
 C       -13.6492593559        2.3541207550        2.2723560614
 C       -14.0932010530        3.1798503597        3.4627109721
 C       -12.9598765495        3.7027349455        4.4136783500
 O       -11.8303503584        3.2921559579        4.3986644794
 C       -13.3026852901        4.9241566046        5.4249622914
 C       -12.1747345709        6.0382825490        5.1785514052
 O       -12.2247710421        6.5115380853        4.0621088500
 C       -11.1696584908        6.3332909375        6.4036458900
 C       -10.0242363186        7.2573671592        5.9969471048
 C        -9.2505635497        6.7838907863        4.7458439568
 O        -9.2572917972        5.6079465889        4.4715587488
 C        -8.3493911927        7.7225677006        3.8831790178
 C        -9.2198540599        7.9141377618        2.5072829851
 O       -10.0103774996        7.0548715442        2.1165178183
 C        -9.1293234150        9.2106956269        1.7683688835
 C        -8.1255539693        9.0938562555        4.5796282897
 C        -6.9784875277        7.1377156166        3.5078834380
 C       -14.7272600979        5.4798320787        5.1616301276
 C       -13.1299268754        4.3486662002        6.8651111872
 C       -11.7988851775        4.0355029414       -0.9490025893
 C       -12.6623174509        1.5729442145       -0.5931145978
 C        -6.3336386282       -2.2219899508        0.8664646235
 C        -5.6135772742        0.1226531822        1.3619163712
 C       -10.3036600457       -0.2323968717       -4.8804663469
 C        -8.0125425362        0.1154430261       -5.9070101950
 C        -8.0886501628        6.5283863213       -7.9741940828
 C        -7.4835872694        6.6785168146       -5.3640825049
 H       -11.4697504283        7.3500840656       -7.4311394838
 H        -9.9520164479        8.0962699871       -7.9591526171
 H       -11.0262868585        8.8415453710       -6.6509685481
 H        -9.7748096910        4.6738705487       -4.3211256114
 H        -8.2529723616        3.9327331990       -4.3770654638
 H        -9.4304657213        2.2949129072       -6.1504071446
 H       -10.7932516169        2.5539377548       -5.0559999069
 H        -6.1201822840       -0.5628904881       -3.8075000193
 H        -6.7210619152       -2.1762230341       -4.1234477482
 H        -5.4050915925       -2.2487465931       -2.0892607535
 H        -7.1683582795       -2.3724291227       -1.6190497009
 H        -7.7673057390        1.5522599742       -0.2556827872
 H        -8.3602780474        1.3949757425        1.5152813405
 H       -10.4518929418        0.2238965294        0.2400432433
 H       -10.1656548174        1.1411161849       -1.0505860786
 H       -12.9874033056        1.5407665856        2.5239853083
 H       -14.4818408869        1.9726445893        1.7138722806
 H       -14.7485136755        2.5533589133        4.1076152653
 H       -14.8494237250        3.9325892298        3.0616469920
 H       -10.7401293014        5.3927958150        6.7813799910
 H       -11.6275241046        6.7570034367        7.2747436717
 H        -9.3896017452        7.2829288408        6.8852277428
 H       -10.4507764018        8.2090332531        5.7879930405
 H        -9.7075895689       10.0257550858        2.1591199453
 H        -9.5491794100        9.0366778224        0.8036334455
 H        -8.2245746458        9.8715181135        1.6711212576
 H        -9.1142238581        9.7080760315        4.5292900245
 H        -7.3476737957        9.6105790787        4.0280139956
 H        -7.9050269482        8.9377914116        5.6478713341
 H        -6.9294958761        6.4449977063        2.6693172072
 H        -6.5049829248        6.5826332591        4.3123289538
 H        -6.3191544582        8.0017023298        3.2984274611
 H       -15.5618194294        4.7791359073        5.3579517786
 H       -14.7975682507        5.6880412792        4.1633903231
 H       -14.8554937605        6.3258907341        5.7674538429
 H       -12.1296365734        3.9720592977        6.9516153116
 H       -13.8397206348        3.4921967700        6.9230297793
 H       -13.2711244961        5.0718810723        7.6317215034
 H       -11.0759920352        3.8184793968       -1.7712771230
 H       -11.4525200800        4.9265662662       -0.4312709283
 H       -12.8016817676        4.4155717558       -1.3515984214
 H       -13.5830166711        1.8337579072       -1.0645150082
 H       -12.9953742680        0.7301414790        0.0123150095
 H       -11.8397098980        1.2494855505       -1.2592372214
 H        -5.4342921310       -2.7592159183        0.5426558505
 H        -7.2122567465       -2.7395581313        0.4594713535
 H        -6.4748507521       -2.2623657729        1.9544041383
 H        -4.6463685434       -0.0972169755        1.2430141922
 H        -5.8439216415       -0.0087546374        2.3598247401
 H        -5.6357554774        1.1810505305        1.1111645646
 H       -10.2224601588       -1.3374335832       -4.9653199776
 H       -10.5180553608        0.1472522350       -5.8966465472
 H       -11.0306277193        0.1002608573       -4.1874746952
 H        -8.4524025294        0.7497207968       -6.7181819535
 H        -7.9090019561       -0.9047433280       -6.3190472617
 H        -6.9647991709        0.3329547427       -5.6753398175
 H        -8.7262230869        6.1426750242       -8.7323446983
 H        -7.2456881626        5.8729936789       -8.0737898390
 H        -7.8961778038        7.5996362474       -8.0623498314
 H        -6.6593983508        6.0543967633       -5.4116315300
 H        -7.9082428115        6.7200580520       -4.3543239667
 H        -7.2037489335        7.7495386710       -5.5555739929
 Na      -10.6430802502        4.9083336772        2.8180302495
