117

 C       -11.0871779577        8.1502084077       -6.7334407010
 C       -10.4373221700        7.2375434223       -5.7110214113
 O       -10.9443330165        6.9338245579       -4.6301246752
 C        -8.9362324932        6.6892967903       -6.0845060997
 C        -9.1865635965        5.1148739554       -6.2173394375
 O        -9.5562946321        4.6467566433       -7.2664368436
 C        -8.9739778052        4.1876471444       -4.9483087763
 C        -9.6061389002        2.7843587889       -5.2796952714
 C        -9.0469441244        1.7505643140       -4.3625368918
 O        -8.8024194927        1.9511038159       -3.1781379562
 C        -8.8558286831        0.3200866473       -4.9854416199
 C        -8.4090351701       -0.5331870198       -3.7444342393
 O        -9.2868683317       -1.1084148363       -3.0572593257
 C        -6.9842646408       -0.5221327287       -3.2613579144
 C        -6.7941589244       -1.3356596825       -1.9746638919
 C        -6.2753955947       -0.4197715658       -0.8878096594
 O        -6.0965674617        0.7492919802       -1.0531328264
 C        -6.2971001223       -0.9640962243        0.6411425123
 C        -7.7700254590       -0.7181408853        1.1574352260
 O        -8.5086708214       -1.6285814337        1.3275487895
 C        -8.2958592287        0.7544074702        1.3382366704
 C        -9.7511027400        0.8730427892        0.9536749348
 C       -10.2466397748        2.3134105456        0.9670250753
 O        -9.5902407617        3.1723171891        1.5661862288
 C       -11.5164572765        2.7809512177        0.2140493933
 C       -12.5638629779        3.3906629438        1.0987874604
 O       -12.5687545899        4.5939240241        1.3562085041
 C       -13.7695009270        2.5795276844        1.6553046541
 C       -14.2671611402        3.3265918558        2.9582604391
 C       -13.1784759287        3.5412974683        3.9746526662
 O       -12.0780140527        3.0391495264        3.8547454601
 C       -13.3952573537        4.4140622228        5.2920807926
 C       -12.3142208464        5.5865140089        5.1175959477
 O       -12.3427619370        6.3176138482        4.1510798365
 C       -11.2447077479        5.7914214994        6.1775426406
 C       -10.2467873329        6.9365021005        5.8309798736
 C        -9.3564716085        6.5693070682        4.5834457911
 O        -9.2991271873        5.4481575206        4.1487308412
 C        -8.5761494386        7.7713558150        3.9486126707
 C        -9.2281878680        8.1430303468        2.4692988550
 O        -9.7917623708        7.3189694888        1.7896232888
 C        -8.8679841286        9.4791782570        1.8549841054
 C        -8.5878561072        8.9636432215        4.9602676026
 C        -7.0976866769        7.3903355205        3.7247166309
 C       -14.8252987199        4.9256590077        5.3598987951
 C       -12.8681963364        3.4402058781        6.4287120822
 C       -10.9366395735        3.7536690132       -0.9490705105
 C       -12.2031515206        1.5794244605       -0.5257068774
 C        -5.8787300547       -2.4485501755        0.6446821860
 C        -5.2923887927       -0.2050217149        1.5206132588
 C       -10.2864208132       -0.1939797788       -5.5873142410
 C        -7.8403456629        0.3043173874       -6.1397737468
 C        -8.4619264102        7.3601110740       -7.4707939042
 C        -8.0488350297        7.0339472228       -4.9430219081
 H       -11.2541501031        7.6744695650       -7.6945523024
 H       -10.3683067116        8.9925959787       -6.7942559670
 H       -11.9915654912        8.5197455980       -6.3642789035
 H        -9.6061833988        4.6122327435       -4.1718815397
 H        -7.8979960801        4.1046388716       -4.7466273290
 H        -9.4966450982        2.6457336242       -6.3579616200
 H       -10.7011302027        2.9054664197       -5.1289583069
 H        -6.7275395590        0.5653229843       -3.0582118817
 H        -6.2629683250       -0.8279400612       -4.0361726972
 H        -6.0894315781       -2.1358561049       -2.1570420413
 H        -7.7273712923       -1.7110003167       -1.6751488993
 H        -7.6320918725        1.2605748263        0.6101100294
 H        -8.1453606548        1.2885049897        2.2994630239
 H       -10.3541108133        0.2482860909        1.5906309159
 H        -9.8429591126        0.5412948599       -0.1140648780
 H       -13.5217586842        1.4824734178        1.8535138116
 H       -14.5758485217        2.5630077422        0.8996450037
 H       -15.1363193513        2.7339460776        3.4845327839
 H       -14.8445847210        4.1467809610        2.7168964546
 H       -10.6832034556        4.8165996858        6.3315838174
 H       -11.6148150798        5.9854807583        7.1896977749
 H        -9.7182079031        7.0737691886        6.8184302957
 H       -10.8599482194        7.8234014845        5.5503519236
 H        -9.4546157565       10.3271783775        2.1066270331
 H        -8.7365947050        9.6554315051        0.8019842932
 H        -7.8806687892        9.7860042345        2.2585130787
 H        -9.5836838916        9.3702125050        5.0463685968
 H        -7.9052439048        9.7748769719        4.5874031979
 H        -8.2106299699        8.7459055783        5.9375095167
 H        -6.9356258053        6.6809347109        2.9842457812
 H        -6.7933060688        6.9374332722        4.7363320032
 H        -6.3816366033        8.1848483021        3.6007254640
 H       -15.5070400245        4.0887198824        5.2543743152
 H       -14.8897964341        5.7551871822        4.6296819381
 H       -15.0321144749        5.4160730583        6.3551928562
 H       -12.0193937103        2.8855321163        5.9609194062
 H       -13.6509939790        2.7691268936        6.6633596778
 H       -12.5754871848        4.0144904069        7.3224733602
 H       -10.3271423169        3.1876891323       -1.6187760727
 H       -10.2736711543        4.4597063891       -0.5054098246
 H       -11.6573682022        4.2740196559       -1.5056503521
 H       -13.0510341217        1.9510888920       -1.0446960695
 H       -12.3184953852        0.6856852784        0.0587984248
 H       -11.5704113820        1.3485722434       -1.3456358860
 H        -5.0199223944       -2.5910430523        0.0451786733
 H        -6.7015891666       -3.0584510467        0.3000662443
 H        -5.5979044858       -2.7983086077        1.6808378634
 H        -4.2276318844       -0.5168287546        1.1312570788
 H        -5.3539118741       -0.5786355909        2.6118975605
 H        -5.5226061641        0.8489948333        1.5189388147
 H       -10.2013393646       -1.2829534341       -5.6540000982
 H       -10.3715042046        0.2022978758       -6.5889269752
 H       -11.1424568061        0.0337202192       -4.9683189743
 H        -8.2542034466        0.7776415327       -6.9987955874
 H        -7.5750286022       -0.6882954398       -6.3491048378
 H        -7.0033981906        0.9744929423       -5.8974444338
 H        -9.2341931305        7.2658190170       -8.2814330860
 H        -7.5301473330        6.9122836674       -7.6657352825
 H        -8.1273884210        8.3677723671       -7.3135717321
 H        -7.0787068167        6.5733174675       -4.8721573120
 H        -8.5817132723        6.7625079612       -3.9654430938
 H        -7.9020339886        8.0931444944       -5.0254562598
 Na      -10.5396731827        5.0151606536        2.3877882520
