117

 C       -10.4831635753        7.4067113019       -7.2802066783
 C        -9.4474024226        6.9761960596       -6.2132165799
 O        -9.6517602437        7.2495525746       -5.0340908239
 C        -8.2926947460        5.9903493284       -6.7111629809
 C        -8.8489074846        4.5487096319       -6.7198180542
 O        -9.1638448349        4.0051623827       -7.7356127176
 C        -9.0492664628        3.8531250435       -5.3680251604
 C        -9.8096096283        2.4984035542       -5.3943937715
 C        -9.1966997876        1.6657955894       -4.2169638964
 O        -8.8428015322        2.1512664981       -3.1799112408
 C        -9.0158822544        0.1072156799       -4.5389611231
 C        -8.2976143343       -0.6366644789       -3.3098183879
 O        -8.9475777155       -0.7744921871       -2.2848634613
 C        -6.8806444143       -1.3687371492       -3.3868290196
 C        -6.5084772575       -1.8799794207       -1.9823950034
 C        -6.1572315961       -0.6955081450       -1.0696731476
 O        -5.4547105990        0.2400951625       -1.4652784478
 C        -6.7312823825       -0.6586268808        0.4710340124
 C        -8.2271435795       -0.2103680411        0.4242293548
 O        -9.1262135963       -0.9152117433        0.8291032542
 C        -8.6068966309        1.2059501647       -0.0877449655
 C       -10.0686583658        1.4035241101       -0.0918765141
 C       -10.7307802242        2.5589869103        0.5710573488
 O       -10.0293871880        3.2810043097        1.2878553237
 C       -12.2468295896        2.7760865327        0.4536552628
 C       -12.9033630836        3.4399186847        1.7154862955
 O       -12.8182885049        4.6665745802        1.8501026822
 C       -13.4760719167        2.4543142780        2.7368822930
 C       -13.9503894022        3.1454264139        4.0119113059
 C       -12.7854975450        3.9711047767        4.6422883314
 O       -11.6329793961        3.6800227739        4.4991161318
 C       -13.2948026541        5.2274917504        5.5640889834
 C       -12.1487554821        6.2873834678        5.3822868379
 O       -11.9694980173        6.8020465739        4.3111025610
 C       -11.2085259146        6.6915044165        6.5867823305
 C        -9.9940811256        7.4482379616        5.9885346923
 C        -9.3467086852        6.7161773143        4.8108709552
 O        -9.3588657627        5.5133096659        4.7216113473
 C        -8.5042902498        7.5386971627        3.7302154856
 C        -9.3599500016        7.7037692460        2.3794727544
 O        -9.5718978570        6.7021737907        1.7236024202
 C        -9.6132796233        9.0458347859        1.8352296591
 C        -7.9525303697        8.9198584093        4.3357339734
 C        -7.3301239892        6.5446092423        3.3985343755
 C       -14.7379325117        5.7875819697        5.0927887253
 C       -13.4842421520        4.6765696097        6.9942674937
 C       -12.4550828612        3.9293736415       -0.6520364385
 C       -12.9722871002        1.5518427883       -0.1195994070
 C        -6.5929044702       -2.0109339495        1.0807721406
 C        -5.9777889507        0.3794205199        1.2008146078
 C       -10.4540329648       -0.6505398729       -4.6904752011
 C        -8.2252015011       -0.0749182070       -5.8539747972
 C        -7.7211837471        6.4856724035       -8.0889114505
 C        -7.0386950273        6.1002969364       -5.6793593765
 H       -11.2497129436        8.0173977210       -6.8756797893
 H       -11.0218967452        6.4900957227       -7.4654008401
 H       -10.1425305407        7.8142632434       -8.2837138441
 H        -9.5279520132        4.5648106463       -4.7252694344
 H        -8.0917313706        3.8480266916       -4.8153057627
 H        -9.7606602431        2.0170156418       -6.4059419901
 H       -10.8332031879        2.7204194289       -5.2103256370
 H        -6.0859252315       -0.7423722023       -3.7274525674
 H        -7.0264666172       -2.2312362657       -4.0737396923
 H        -5.7121955388       -2.5621619889       -2.0597589207
 H        -7.2987065592       -2.5245092662       -1.5279600914
 H        -8.2360830256        1.2680534636       -1.1177143658
 H        -8.0965494683        2.0877379689        0.4369165468
 H       -10.5582957367        0.5240401258        0.3829985611
 H       -10.5210465546        1.2786768183       -1.0125687557
 H       -12.5314047945        1.9156632612        2.9869235853
 H       -14.2150904020        1.8032562609        2.2779119995
 H       -14.0997531234        2.2700836546        4.7385269090
 H       -14.7708420119        3.7242341508        3.8724358115
 H       -10.7299526721        5.8636490173        7.1638791279
 H       -11.8738758741        7.2515996329        7.2921997391
 H        -9.1819790426        7.6214769337        6.7397682743
 H       -10.1620944410        8.5141356783        5.6707744724
 H        -9.7794952061        9.8664685079        2.4954890036
 H       -10.4021371001        9.1297026038        1.1073825686
 H        -8.7552386541        9.3956115082        1.2260990532
 H        -8.8793056707        9.5841038843        4.4626735150
 H        -7.1416355378        9.3041485708        3.6376902461
 H        -7.4469990808        8.8577658150        5.3092362866
 H        -7.6906286073        5.8282401366        2.7822909697
 H        -6.9375740427        6.0999346183        4.3570624257
 H        -6.5223916656        6.8992016146        2.8100976516
 H       -15.4880805664        5.0973287030        5.3614297164
 H       -14.7448972617        6.0105056156        4.0367614878
 H       -15.0558861136        6.7291900653        5.5657394572
 H       -12.5263707055        4.3287073741        7.4028450700
 H       -14.1846968366        3.9330684075        7.1072297968
 H       -13.8126196368        5.5377141247        7.5983262476
 H       -12.0780496030        3.5298749772       -1.6472334709
 H       -11.8178921340        4.8138291553       -0.4131447204
 H       -13.5052242814        4.1802406670       -0.8460285288
 H       -13.9794091789        1.8562121984       -0.4975096824
 H       -13.0038468348        0.6097162728        0.4878277663
 H       -12.5665396162        1.2965601700       -1.0904718615
 H        -5.5652628338       -2.2939378157        1.0860447512
 H        -7.2734865526       -2.7219393098        0.6235630115
 H        -6.8514115555       -2.0037482894        2.1696079512
 H        -4.9276128630        0.2200791608        1.2635649943
 H        -6.2877644046        0.5832717724        2.2055093081
 H        -6.1479317112        1.4314403163        0.7321824346
 H       -10.2570451156       -1.6646020039       -5.0207235355
 H       -11.0806336395       -0.1303176084       -5.4019123067
 H       -10.9857644035       -0.7126211201       -3.7096398597
 H        -8.5910530741        0.4611506859       -6.7084784916
 H        -8.0292244729       -1.0737897728       -6.1890919709
 H        -7.2425223858        0.4543113448       -5.7784753830
 H        -8.4738792352        6.2558497539       -8.8689755449
 H        -6.7942682979        6.0094245213       -8.2330958495
 H        -7.4721396546        7.5131283514       -8.0436925321
 H        -6.1688696507        5.4280395855       -5.8633378945
 H        -7.4116255043        5.8836944613       -4.6554791705
 H        -6.6899276279        7.0706057632       -5.7559250156
 Na      -10.5303505232        5.0021521452        2.7730941983
