117

 C       -10.4276839362        7.2006389714       -7.2616369648
 C        -9.3529943345        6.8903531306       -6.2773683939
 O        -9.4188041682        7.1228786936       -5.0923675375
 C        -8.1408066774        5.9327017889       -6.7998458031
 C        -8.7649309941        4.5353442250       -6.7937520746
 O        -9.1790457990        4.0734483573       -7.8441189268
 C        -9.0859381331        3.8948281371       -5.4582866620
 C        -9.6261959435        2.4752857469       -5.3915917731
 C        -9.0799757531        1.5551894355       -4.2960045505
 O        -8.9744035590        1.8517161731       -3.1047436828
 C        -8.9975061998       -0.0152310953       -4.6614640706
 C        -8.4076845667       -0.6696450177       -3.3007948853
 O        -9.1109520296       -0.6738427210       -2.3000569017
 C        -7.0238570899       -1.2641011242       -3.3797350510
 C        -6.6059987061       -1.8295338449       -1.9944517595
 C        -6.1215399615       -0.6548774765       -1.0539453629
 O        -5.3051129063        0.1114802911       -1.4121664835
 C        -6.7661962243       -0.5434970792        0.4122313933
 C        -8.2814443962       -0.1324142606        0.4976025960
 O        -9.0842585517       -0.8948647144        0.9668903059
 C        -8.6467748715        1.2895113349        0.0732293728
 C       -10.2056400135        1.3863274946       -0.1407864146
 C       -10.8285599820        2.6734824303        0.5088864432
 O       -10.1013781160        3.3279176160        1.2458126609
 C       -12.3958845501        2.8976603911        0.4142593993
 C       -12.9498293860        3.4198503035        1.7490833795
 O       -12.7814335436        4.5418612377        2.1773106095
 C       -13.5280095599        2.3657173601        2.7945075783
 C       -13.9151574427        3.0258203419        4.1168356271
 C       -12.8433167174        3.9979005343        4.7250253922
 O       -11.6319895152        3.7085920585        4.7367825670
 C       -13.2632917818        5.3238779649        5.4885011998
 C       -12.1065394175        6.3410180139        5.2405705255
 O       -12.0592100009        6.9179317001        4.1516764880
 C       -11.1256436379        6.7170565039        6.3614858793
 C        -9.9854213400        7.5902803663        5.9071412303
 C        -9.2835515423        6.7417139234        4.7714299207
 O        -9.4418033976        5.5190469672        4.8063860199
 C        -8.3572228634        7.5188372666        3.7096798314
 C        -9.3364227342        7.6808073983        2.4515246109
 O        -9.7569516291        6.6835508415        1.9090440773
 C        -9.6667998705        9.0648809395        2.0150569613
 C        -7.8109248248        8.9035964199        4.2649266756
 C        -7.1529605113        6.6318229591        3.3413728746
 C       -14.5634957084        5.9907288564        5.0429453987
 C       -13.3559628222        4.9052191754        7.0588717851
 C       -12.4585799967        3.9573235211       -0.7589680175
 C       -13.1289646876        1.5440411355        0.0261062078
 C        -6.6775725469       -1.9576116397        1.0963673960
 C        -5.9378434197        0.4532536614        1.1896369614
 C       -10.4671420479       -0.4009488484       -4.8187014625
 C        -8.1233810712       -0.3605329970       -5.8851605805
 C        -7.6205719638        6.3659684889       -8.2913421757
 C        -7.0580023652        6.0400083829       -5.7993336958
 H       -10.8032540075        8.2546160903       -7.2371789562
 H       -11.3746622152        6.6314592437       -7.1244785894
 H       -10.0137257334        7.0113742124       -8.1592309018
 H        -9.7395499935        4.6446621450       -4.9126473778
 H        -8.1702193993        3.9889535744       -4.8607749924
 H        -9.5069812123        2.0611104977       -6.3764834898
 H       -10.7603251294        2.4972943534       -5.2515072079
 H        -6.2914425748       -0.4607444010       -3.7139143915
 H        -7.1209732036       -2.0357909380       -4.1518091690
 H        -5.8108274297       -2.6044886379       -2.1135413124
 H        -7.3916746868       -2.4020875642       -1.5834370595
 H        -8.0921494635        1.5522014061       -0.8041699042
 H        -8.3540684898        1.9903905549        0.7893867378
 H       -10.7485700953        0.5026214953        0.2303916712
 H       -10.5583391321        1.3167055316       -1.2401512708
 H       -12.6369611458        1.7565282099        2.9322442542
 H       -14.3569585799        1.7450881188        2.3843096366
 H       -14.0324167386        2.2570119306        4.8224024056
 H       -14.8615903709        3.6867082819        3.8908021687
 H       -10.6686619208        5.7972156258        6.7430390318
 H       -11.7299704032        7.1599027848        7.1618347494
 H        -9.2429247181        7.8281653237        6.6607851435
 H       -10.3042142773        8.5841662533        5.6491755257
 H        -9.9413961338        9.8169910335        2.8025019382
 H       -10.5461712194        9.1790084515        1.3370284315
 H        -8.9024504937        9.5148907124        1.4282171270
 H        -8.5545033010        9.4396397474        4.7381635817
 H        -7.3170022290        9.5066390674        3.5228437376
 H        -7.0404704144        8.6328548295        4.9925405583
 H        -7.4726789097        5.8824482642        2.5175493032
 H        -6.7304532810        6.1350394579        4.1663914976
 H        -6.3135691365        7.1488226153        2.8405481628
 H       -15.5127953218        5.4098661892        5.1735603943
 H       -14.3995045911        6.3644084656        3.9911024886
 H       -14.7549189154        6.9393131542        5.5358871594
 H       -12.4175597310        4.4937266484        7.3784803012
 H       -14.0396943802        3.9895884796        7.1672902567
 H       -13.7373774031        5.6067073083        7.7799113957
 H       -11.8448409967        3.7415830694       -1.5773314178
 H       -12.2968782282        4.9656970406       -0.4175158470
 H       -13.4502388095        3.8304370470       -1.1490554598
 H       -14.1778754622        1.6006096698        0.1356848638
 H       -12.6945452421        0.7906758083        0.6207577861
 H       -13.1041272016        1.2394263066       -1.0123156271
 H        -5.6124497566       -2.2117718120        1.2933257792
 H        -7.1766155995       -2.7363063334        0.5201529190
 H        -7.0858402186       -1.9223195074        2.0634625529
 H        -4.8828737879        0.0480687175        1.4242019553
 H        -6.3656109519        0.7730004535        2.1814737948
 H        -5.8036400233        1.4050875260        0.7462031689
 H       -10.6279904297       -1.4761820236       -4.7539006509
 H       -10.8806418951       -0.0243488589       -5.7581743406
 H       -10.9806417878        0.0250653159       -3.9847446258
 H        -8.4707535987       -0.0371220903       -6.8591045770
 H        -8.1644819936       -1.4507631064       -5.9878484343
 H        -7.1303935054       -0.0695821474       -5.9579310374
 H        -8.3671516525        6.1921050436       -9.0014523022
 H        -6.6129564048        5.9777601617       -8.5195533109
 H        -7.4010536231        7.4429590147       -8.2169666808
 H        -6.3775768203        5.2158137029       -5.9711685068
 H        -7.4693640993        5.9237497225       -4.8352570774
 H        -6.3950307841        6.9558434187       -5.9138554191
 Na      -10.7065037082        4.8496870133        2.8778769282
