117

 C       -10.6135532824        7.8313535350       -7.2138288338
 C        -9.7621828663        7.1005141901       -6.1581928606
 O       -10.0600645787        7.1516424190       -4.9617384807
 C        -8.4812204443        6.1583058749       -6.5461191610
 C        -9.0052628097        4.6809562616       -6.3978050821
 O        -9.2940010623        4.0453817471       -7.3915303487
 C        -9.0879199430        4.0834508681       -5.0242568494
 C        -9.6097616006        2.6327505555       -5.0905439251
 C        -9.0197017239        1.6463443364       -4.1101222146
 O        -8.8319577210        1.9094583717       -2.9592393966
 C        -8.9580681258        0.0920316798       -4.5986568518
 C        -8.3785277721       -0.6835091228       -3.3116340051
 O        -9.0079550769       -0.6143856992       -2.2271423076
 C        -6.9691205309       -1.2446985559       -3.3886792384
 C        -6.4006288953       -1.7229135480       -2.0655370222
 C        -6.2430752252       -0.5439764891       -1.1203244952
 O        -5.8978107841        0.5568786261       -1.4695029198
 C        -6.5627426674       -0.7764362117        0.3818454259
 C        -8.1264441572       -0.3435773629        0.4790720485
 O        -8.9947175724       -1.1322817305        0.6787542084
 C        -8.4007485141        1.1532190701        0.2197146035
 C        -9.8319909856        1.2992858482       -0.1692759592
 C       -10.6159323227        2.3076661590        0.6104795593
 O       -10.0226772570        3.0247603692        1.4290505487
 C       -12.1733561647        2.7913931243        0.2084773354
 C       -12.7780424070        3.3183367018        1.4787324490
 O       -12.7252076299        4.5383971118        1.7207447187
 C       -13.4335997600        2.3761882546        2.5205577642
 C       -14.1010840290        3.1044621379        3.7437076557
 C       -12.9836500542        3.9085111039        4.4891631490
 O       -11.8190036845        3.5089824233        4.4101404226
 C       -13.3130423116        5.0782248779        5.5291740421
 C       -12.1102987653        6.1245448239        5.2657729852
 O       -11.9243131088        6.5796384299        4.1439747352
 C       -11.1932605046        6.3860424766        6.4766344318
 C       -10.1239375947        7.4046116961        5.9164916815
 C        -9.4347882101        6.7563748222        4.7503846357
 O        -9.3328229180        5.5572455720        4.5232961120
 C        -8.4993694569        7.6832819345        3.8750376376
 C        -9.2712685865        7.8693615561        2.4780226171
 O        -9.7366544163        6.8723647575        1.9635346210
 C        -9.2706394847        9.1734289460        1.8158242823
 C        -8.1569835180        9.0057736781        4.5025358653
 C        -7.1992245961        6.8695201515        3.4868250774
 C       -14.6280482081        5.8200808252        5.3610287427
 C       -13.3426511468        4.3566989051        6.9395459694
 C       -11.9928703810        3.9580829087       -0.7686708985
 C       -12.9799702073        1.6942041870       -0.5414401851
 C        -6.3172646615       -2.2441443268        0.8358770587
 C        -5.7767734354        0.2542112082        1.3117565202
 C       -10.3398254531       -0.4526800160       -4.9740952062
 C        -8.0111309741       -0.0226462606       -5.8154321181
 C        -7.9274691750        6.5026697216       -7.9234196273
 C        -7.3677708441        6.4080772857       -5.5528809189
 H       -11.6164596977        7.3929404521       -7.1414088808
 H       -10.2367210942        7.5843459618       -8.2194387904
 H       -10.7296697719        8.8750066633       -7.1012614409
 H        -9.5856969711        4.7406953234       -4.3082850536
 H        -8.0709572803        4.0753152828       -4.5396079166
 H        -9.2960797938        2.1928074590       -6.0739311145
 H       -10.6763461955        2.5121863335       -4.9682234340
 H        -6.3380133989       -0.4434968541       -3.7850892656
 H        -7.0080759038       -2.1003927858       -4.1395577647
 H        -5.4538473946       -2.1383086210       -2.1974045030
 H        -7.0227632576       -2.5434981247       -1.6714162014
 H        -7.8499556125        1.5607346522       -0.5721922628
 H        -8.0933106048        1.6624324667        1.1390820398
 H       -10.4189055141        0.3394483760       -0.2469156274
 H        -9.9033015322        1.5266826131       -1.1975753762
 H       -12.5269997002        1.8305912889        2.9226977256
 H       -14.1136423448        1.6607862855        2.0026650027
 H       -14.5357120689        2.3054984675        4.3914676433
 H       -14.9202406925        3.7293006896        3.4904390676
 H       -10.8086487507        5.4070809302        6.8453578967
 H       -11.7093701855        6.8526853404        7.3646110819
 H        -9.3114298852        7.6731858435        6.6488882771
 H       -10.7011209375        8.3366763809        5.6109134741
 H        -9.9868288307        9.9355490628        2.1210727594
 H        -9.3871514180        9.0662461929        0.7336189223
 H        -8.4184126927        9.7991758724        1.9738790820
 H        -9.0254834222        9.6210811240        4.6091101462
 H        -7.3574572834        9.4398671137        3.8345045856
 H        -7.7817809466        8.8567253695        5.5154151498
 H        -7.3653873669        5.8404340565        3.2875876347
 H        -6.4873471710        6.9090123847        4.3526560850
 H        -6.7513916752        7.2434973662        2.5822925595
 H       -15.3958567247        5.0745239235        5.3263467922
 H       -14.7497109250        6.3153082415        4.3418969624
 H       -14.8480983570        6.5285745696        6.2173881411
 H       -12.4440649146        3.8255419838        7.2794809492
 H       -14.1626020824        3.7057871692        6.8903511152
 H       -13.5861730885        5.1310166560        7.6926535904
 H       -11.3679786066        3.6528498994       -1.5948080092
 H       -11.5179756461        4.8428157009       -0.3081427338
 H       -12.9078328685        4.3204004186       -1.1286746185
 H       -14.0561371414        1.8626769913       -0.3345424083
 H       -12.9097562096        0.7338751946       -0.0070552019
 H       -12.6927435333        1.5555737592       -1.5677411518
 H        -5.2774083598       -2.4674227512        0.6328611735
 H        -6.9460664954       -2.9476383038        0.3045775176
 H        -6.5264065924       -2.4002303411        1.8973508478
 H        -4.6590230931        0.0207305685        1.5782260680
 H        -6.2740951722        0.4355604974        2.3267115813
 H        -5.6941298707        1.2571137270        0.8112569018
 H       -10.2256928461       -1.5002657680       -5.1103939091
 H       -10.7961890552        0.0019719685       -5.8245701014
 H       -10.9592137477       -0.2765625938       -4.0631981962
 H        -8.4228417010        0.4578398538       -6.6762826186
 H        -7.9388587937       -1.0661288215       -6.0681333337
 H        -6.9463567242        0.2778844892       -5.7425554014
 H        -8.5421672523        6.1207332108       -8.7694620734
 H        -7.0067372141        5.9388381500       -7.9871875973
 H        -7.7267049593        7.5577098091       -7.9139094470
 H        -6.5876281844        5.6090139321       -5.7737347426
 H        -7.7041806350        6.3124212935       -4.5112585414
 H        -6.9809944610        7.3768960340       -5.6662798852
 Na      -10.6926829158        4.8026316937        2.5553919827
