117

 C       -10.5214315189        7.2899394235       -7.2803372693
 C        -9.3872263140        6.8901289722       -6.2740343421
 O        -9.5294191470        7.1711179583       -5.1207359363
 C        -8.2040992266        6.0286655259       -6.7261140469
 C        -8.8807747507        4.5950006578       -6.8500210562
 O        -9.1548803428        4.0451060412       -7.8996440392
 C        -9.0792671806        3.9650709709       -5.3558144244
 C        -9.7206766458        2.5212687703       -5.3081572689
 C        -9.1101209665        1.5785768040       -4.2442602471
 O        -8.9302205978        2.0012947271       -3.1060488985
 C        -8.9544856978        0.0270521941       -4.5559165368
 C        -8.3935179160       -0.7183862488       -3.3137480169
 O        -9.0200569994       -0.7157528081       -2.3075536888
 C        -6.9708305407       -1.3179947555       -3.3723880702
 C        -6.5347924506       -1.8534430279       -1.9452266702
 C        -6.1947468520       -0.7177154692       -1.0513712891
 O        -5.3847882516        0.1394623413       -1.3988187726
 C        -6.7583416592       -0.5948168470        0.3905477485
 C        -8.2653036626       -0.1618214848        0.3745457749
 O        -9.1218840853       -0.8574455844        0.9098885166
 C        -8.6262711417        1.2915538671       -0.0396668746
 C       -10.1397266030        1.3864637272       -0.0491720190
 C       -10.7162693583        2.6388756558        0.6573125371
 O       -10.0602945159        3.3807844710        1.3311424310
 C       -12.3231276595        2.8445118595        0.3380097135
 C       -12.8037273773        3.3826538138        1.7019322317
 O       -12.8143723610        4.5424847681        1.9993421881
 C       -13.4691103122        2.3677644763        2.7574163586
 C       -13.8928327540        3.0665480820        4.0505911912
 C       -12.8518658952        4.0193543057        4.7112428743
 O       -11.6725000539        3.7588566274        4.6560333289
 C       -13.2575119950        5.2631577263        5.5209003244
 C       -12.1772742391        6.4010967477        5.3443679263
 O       -12.0169822276        6.8547872862        4.2268698888
 C       -11.2203816756        6.6611107607        6.4764638899
 C       -10.0394888601        7.4672224372        6.0013526008
 C        -9.2715698102        6.7677729375        4.8597155466
 O        -9.3926520395        5.5728814454        4.7540574936
 C        -8.4686980657        7.4598144261        3.7450641156
 C        -9.2808730469        7.7174509696        2.4100389645
 O        -9.6679017819        6.7086841710        1.7950650808
 C        -9.6676160035        9.0492164556        1.8854737096
 C        -7.8839530296        8.8174802973        4.2665271072
 C        -7.2296874893        6.5848631376        3.3739967106
 C       -14.5687180880        5.8844976209        5.0757956060
 C       -13.3697521983        4.7911668891        7.0112443069
 C       -12.5130175987        3.9174979022       -0.7784334238
 C       -13.0848346895        1.6250733240       -0.0175940306
 C        -6.6066462891       -2.0272004934        1.0738077469
 C        -5.9545998333        0.4615228843        1.1793105652
 C       -10.3679718773       -0.5142751116       -4.7371767853
 C        -8.2438048867       -0.2440652859       -5.9140862391
 C        -7.6680000609        6.4306010911       -8.0916863345
 C        -7.0008955860        6.0055263130       -5.7311104084
 H       -10.9433913554        8.2062807864       -6.9282651207
 H       -11.3673359018        6.6616418959       -7.3195082925
 H       -10.1012170856        7.4812443890       -8.3148911613
 H        -9.6324101656        4.7312786207       -4.7479654352
 H        -8.1144635100        4.0204444237       -4.8298515719
 H        -9.6303959146        2.1318005506       -6.3619182482
 H       -10.7879254179        2.6028624792       -5.1282217442
 H        -6.2292947778       -0.5412825745       -3.6736573399
 H        -6.9938294841       -2.1277508268       -4.1368969902
 H        -5.6436051644       -2.4424014268       -2.0640805669
 H        -7.1912731394       -2.5476384890       -1.5092297916
 H        -8.1414806332        1.5350893987       -0.9885887996
 H        -8.2675815499        1.9956258509        0.6378968256
 H       -10.5695512436        0.4650596792        0.4105677905
 H       -10.6636919700        1.3051938065       -1.0065523326
 H       -12.9163939887        1.3988909477        2.9078056162
 H       -14.4299051711        2.1899485778        2.2535088204
 H       -14.0477435703        2.2672257352        4.7402401532
 H       -14.8241630188        3.6240546159        3.7841269732
 H       -10.8061046658        5.7161474973        6.9731606137
 H       -11.8397550425        7.1908203733        7.2227223424
 H        -9.3166150100        7.7159821094        6.8224698175
 H       -10.3252184467        8.5002874208        5.7081182191
 H        -9.9592278436        9.8635723529        2.4943617032
 H       -10.5165114087        8.9357486746        1.2355517640
 H        -8.9404456066        9.4938182148        1.1431803713
 H        -8.7823365080        9.4405081735        4.5927555019
 H        -7.2338862044        9.2780640836        3.5364510544
 H        -7.2418352230        8.6604922707        5.1395900008
 H        -7.3999755968        5.9508365809        2.4980054930
 H        -6.8165490942        6.0449580449        4.1870118435
 H        -6.4423053702        7.2260701897        2.9793725718
 H       -15.4884634368        5.2586934619        5.3256994176
 H       -14.4887927774        6.1303281300        4.0461985869
 H       -14.7845787580        6.8693192096        5.5209445660
 H       -12.3918417009        4.6499490030        7.4240976027
 H       -13.8975105068        3.8533229543        7.2379883004
 H       -13.8605993456        5.5480571251        7.5716521206
 H       -11.9857958142        3.6708553581       -1.7119409334
 H       -12.1328365289        4.8284606707       -0.3952859290
 H       -13.5806341452        4.0007607784       -1.0925804653
 H       -14.1320073393        1.8355707972        0.0165145951
 H       -12.7991251468        0.7919885087        0.6265985953
 H       -13.0459997233        1.3159440273       -1.0791413385
 H        -5.5640310894       -2.2195942599        1.1796028108
 H        -7.1266983162       -2.8179256045        0.5450051472
 H        -6.9558245588       -2.0544640896        2.1269609182
 H        -4.8846070239        0.1827561833        1.4028335034
 H        -6.4361011162        0.5964037581        2.2428801859
 H        -5.9609890215        1.5301338059        0.8625003892
 H       -10.2973003607       -1.6130916991       -4.8558921830
 H       -10.7344734484       -0.0827937429       -5.6748132375
 H       -11.0335643677       -0.3079425336       -3.9403413236
 H        -8.6770362352        0.2354740866       -6.7808801685
 H        -8.2117395122       -1.2772942510       -6.1740853590
 H        -7.2399756569        0.1385060260       -6.0144873145
 H        -8.4414406593        6.1631104081       -8.7712356844
 H        -6.7152139633        6.0046054396       -8.2779640128
 H        -7.4538834249        7.4919821926       -8.1280589752
 H        -6.2757232335        5.3286067076       -6.1010587863
 H        -7.3182494378        5.6206878544       -4.7415336944
 H        -6.4656873591        6.9777367704       -5.6877096676
 Na      -10.6202954345        4.8761158132        2.7699268144
