117

 C       -10.4163848814        7.4682806973       -7.2500352115
 C        -9.5796460577        6.9116380761       -6.1633873900
 O        -9.6587616190        7.2861125081       -4.9933696333
 C        -8.3564184137        6.1032175877       -6.6601839197
 C        -8.8479123341        4.5344303368       -6.5967050210
 O        -9.1658446559        3.9935883447       -7.6468212629
 C        -9.0504660978        3.8548922651       -5.2753275980
 C        -9.7968391999        2.5365875367       -5.3448793865
 C        -9.3036805840        1.5951310139       -4.2662637483
 O        -8.8095299577        2.1643506884       -3.3270396719
 C        -8.9757349553        0.0875707410       -4.5069952817
 C        -8.2978785097       -0.6681578198       -3.3146210483
 O        -8.8881596717       -0.7523980146       -2.2136857865
 C        -6.9528266671       -1.3079777690       -3.4281566867
 C        -6.5232342960       -1.7971039298       -2.0621439326
 C        -6.1961360564       -0.6176221414       -1.0720888589
 O        -5.5844841111        0.2986659786       -1.5087394803
 C        -6.6768602048       -0.6686554078        0.4355214309
 C        -8.2434825673       -0.2747996149        0.3955578597
 O        -9.0505147619       -1.0564517922        0.7928079121
 C        -8.6120782051        1.1110190875       -0.1243057983
 C       -10.0814192030        1.3003220236       -0.2620715262
 C       -10.6788933254        2.4816059914        0.5831395163
 O        -9.9779626942        3.2240524331        1.2741376409
 C       -12.2420437427        2.8388837530        0.3022945987
 C       -12.8798472346        3.4326048640        1.6584699081
 O       -12.8825277274        4.6454105643        1.8465037963
 C       -13.3606363775        2.4502259940        2.7295478276
 C       -13.9861547480        3.1521154244        3.9885971456
 C       -12.9341071096        3.9795094263        4.6342200850
 O       -11.7642280034        3.6874683343        4.4008087335
 C       -13.2705857693        5.1391115719        5.6157274750
 C       -12.1917892420        6.2489405140        5.4400458834
 O       -11.9257166683        6.7187110822        4.3242685389
 C       -11.2089922628        6.6725290119        6.5594442514
 C        -9.9805602841        7.4202566491        6.0044598375
 C        -9.3929118315        6.7334895896        4.7839342715
 O        -9.4163868093        5.5048312301        4.7401566440
 C        -8.5566823685        7.5287687417        3.7258070215
 C        -9.2349016035        7.7168617543        2.3531038055
 O        -9.5525994152        6.7675706498        1.7057940252
 C        -9.5031134789        9.0963170488        1.8075403776
 C        -8.0979873285        8.8492122544        4.3021370863
 C        -7.3359840174        6.6565978663        3.4264824086
 C       -14.6042723393        5.7049587691        5.1258704649
 C       -13.5261511092        4.5667616615        6.9947277488
 C       -12.2526158174        4.0178995565       -0.6995067514
 C       -12.9595932825        1.4778016038       -0.1462607965
 C        -6.5946290064       -2.0646487143        1.0951324499
 C        -5.8501719016        0.3957379959        1.2594997182
 C       -10.3710333283       -0.6414904602       -4.6528119295
 C        -8.1569372775        0.0445644212       -5.7084581551
 C        -7.8422466699        6.4479176398       -8.0716600035
 C        -7.2114618463        6.2740012589       -5.5825101078
 H       -11.4055228981        7.8916201872       -6.9240478086
 H       -10.6730982761        6.6525191280       -7.9900601418
 H        -9.8689796458        8.1841308946       -7.7342120875
 H        -9.2653447987        4.5292298980       -4.4859658833
 H        -8.0173638453        3.6864658203       -4.9712497052
 H        -9.6510531679        2.1372470467       -6.3080889342
 H       -10.8800176873        2.7622379310       -5.2152829825
 H        -6.2628531208       -0.5629894383       -3.7916418795
 H        -6.9992165657       -2.1513429519       -4.0889049737
 H        -5.6910844321       -2.5349059679       -2.1895846386
 H        -7.3227220298       -2.4823247237       -1.6798363062
 H        -8.0454477501        1.3918159320       -1.0378053306
 H        -8.2244246254        1.8762854116        0.6772385283
 H       -10.6371869607        0.4068230762       -0.0970956202
 H       -10.4665197362        1.4874197715       -1.2677378044
 H       -12.4836059339        1.8961735956        2.9327435307
 H       -14.1215147454        1.8537733395        2.2237297585
 H       -14.3806323310        2.3622482719        4.6734149114
 H       -14.7703997295        3.9072184541        3.6583195777
 H       -10.8097874916        5.8141416937        7.0416596745
 H       -11.7274824825        7.2400029054        7.3652965447
 H        -9.2408128592        7.6001744346        6.7807266805
 H       -10.2233928313        8.4415185923        5.6940667882
 H        -9.8295855316        9.8142840830        2.5974241930
 H       -10.2932126035        9.1970984553        1.0244787207
 H        -8.7454765397        9.6630786044        1.3818527871
 H        -8.9198344663        9.4989273688        4.4155458442
 H        -7.2489691909        9.1586668735        3.6267294965
 H        -7.5950216339        8.7866773203        5.3088609847
 H        -7.7327248956        5.6700445889        3.0947490031
 H        -6.7305043524        6.5484849944        4.3040561582
 H        -6.7853784777        6.8768395005        2.5395674486
 H       -15.3746859912        5.0303605577        5.3179771640
 H       -14.6514975900        6.0584601086        4.0752580576
 H       -14.8273236433        6.5504636577        5.7141442930
 H       -12.7555161062        3.8643976949        7.3131861226
 H       -14.4845976059        4.0369333084        6.9605086543
 H       -13.6303684903        5.3700771584        7.7445929485
 H       -12.0269397013        3.5804106088       -1.6865129550
 H       -11.4237008497        4.7798782128       -0.4980419071
 H       -13.2344830695        4.4809967460       -0.8113619567
 H       -13.9982334608        1.4871193049       -0.5805524681
 H       -12.8799950211        0.7691096359        0.6914995150
 H       -12.4180357615        1.0115101392       -0.9688179603
 H        -5.5774269062       -2.5280500059        1.0933315153
 H        -7.4311321585       -2.7005646475        0.8026177088
 H        -6.7685557951       -1.8987873372        2.1286200854
 H        -4.8411986498        0.0720386231        1.3292091692
 H        -6.1490357412        0.5256243396        2.2316817826
 H        -5.8371729949        1.3503144557        0.8918623105
 H       -10.3312121212       -1.5840823443       -5.1722975712
 H       -11.1292537666        0.0362384472       -5.0491009113
 H       -10.6586438314       -0.8341031751       -3.5923707745
 H        -8.6242495573        0.4787490814       -6.5986163968
 H        -7.7207396210       -0.9379100190       -6.0234506783
 H        -7.3209850724        0.7333614946       -5.6338319532
 H        -8.6828974020        6.1487979555       -8.6755285342
 H        -6.9740857433        5.7873874521       -8.2908675335
 H        -7.5295162409        7.4759301953       -8.2235905294
 H        -6.4319222726        5.4706471925       -5.5981852057
 H        -7.6520625826        6.2685949045       -4.6330742489
 H        -6.7259486608        7.2281274145       -5.7674025244
 Na      -10.5008499989        5.0915040220        2.7897121929
