117

 C       -10.2542420078        7.3196374376       -7.4008637910
 C        -9.0307027787        6.8599583177       -6.5587054215
 O        -8.9736575679        7.2392058312       -5.4219862966
 C        -7.9156637270        5.8793540198       -7.1643916057
 C        -8.5828842310        4.4063236016       -7.0787168818
 O        -9.2573608896        4.0108418981       -8.0179437196
 C        -8.3444879259        3.4993192384       -5.8122684672
 C        -9.0532311123        2.1150445960       -5.8918772778
 C        -9.0842054215        1.2856894258       -4.6046736522
 O        -9.3058446456        1.8112675534       -3.4948803170
 C        -9.1792897862       -0.2783777775       -4.6389319143
 C        -8.8763939476       -0.8597483872       -3.2726100004
 O        -9.6561184057       -0.8963932772       -2.3643551076
 C        -7.4289740925       -1.4699297684       -2.9799623711
 C        -7.2053375913       -1.6605002793       -1.4850016094
 C        -6.5519918768       -0.4811380637       -0.8304709598
 O        -5.8422709511        0.2651995471       -1.4061780725
 C        -6.8668716827       -0.3435005999        0.7458362119
 C        -8.3449527009       -0.0270232415        0.7269770218
 O        -9.1755501021       -0.8418234797        1.0475689239
 C        -8.7437498901        1.3082019408        0.1342868919
 C       -10.2483251882        1.4515411016       -0.0656888030
 C       -10.8735826587        2.3851131451        0.9929338327
 O       -10.1909556077        3.0438898948        1.7418049955
 C       -12.4164985619        2.6444951007        0.7008286137
 C       -12.9882174209        3.3387193528        2.0617727002
 O       -12.8093262419        4.5365143942        2.1485722190
 C       -13.5441069980        2.3567864066        3.1456186356
 C       -13.9718173823        3.0293767052        4.4697821193
 C       -12.9149558365        4.0349615281        4.8900227757
 O       -11.7411763755        3.7682365227        4.7558894104
 C       -13.2758042824        5.4327921242        5.4154304935
 C       -12.0093981487        6.3443483156        5.1513568223
 O       -11.8136675501        6.7339547860        4.0065430385
 C       -11.0538687670        6.6984814327        6.3088945029
 C        -9.9927532483        7.5947579715        5.7296032599
 C        -9.0454317293        6.7904543310        4.7156028344
 O        -8.8613205090        5.5819352148        4.8396736230
 C        -8.2909411622        7.5674862993        3.6261882861
 C        -9.3054783257        8.0523852392        2.5122235141
 O        -9.9480689827        7.1282570805        1.9687815861
 C        -9.4653749599        9.5116209817        2.0557652700
 C        -7.5432623212        8.8185850025        4.1867349399
 C        -7.3093812101        6.6466709027        2.9583585666
 C       -14.5109445712        6.0760257754        4.7894642126
 C       -13.5157899590        5.2607451231        6.9229823588
 C       -12.5375739592        3.8737366148       -0.4176409683
 C       -13.1798803324        1.3210804130        0.3526462648
 C        -6.6889561628       -1.6526921835        1.4967794485
 C        -5.9652931169        0.7746183919        1.2699441978
 C       -10.5895788085       -0.4988504931       -5.1480724795
 C        -8.3092426938       -0.9400486161       -5.7621284203
 C        -7.4951491417        6.4307059258       -8.6004202356
 C        -6.5931958888        6.0823889864       -6.2050337603
 H       -10.0774818885        7.3868240074       -8.4911755077
 H       -10.6052593313        8.3121093780       -7.0834584568
 H       -11.1203866678        6.6659444742       -7.2393131831
 H        -8.8116504349        4.0386131712       -5.0152699208
 H        -7.2665870819        3.3381775051       -5.6548095416
 H        -8.5003983127        1.6126300203       -6.7393370364
 H       -10.0335407163        2.1972937107       -6.3173972377
 H        -6.6316738726       -0.8151237065       -3.2821430373
 H        -7.2910038913       -2.4108794640       -3.5398460199
 H        -6.5237207550       -2.5402211803       -1.4030161268
 H        -8.1718231530       -1.9335920231       -0.9265019343
 H        -8.1518009709        1.4430409373       -0.8164589528
 H        -8.4515369462        2.0861994948        0.8769825393
 H       -10.6748950120        0.4087265014       -0.0245872970
 H       -10.5688423502        1.7853050756       -1.0149882723
 H       -12.8106722877        1.5610698067        3.2564014467
 H       -14.3512822290        1.8072747912        2.7069756081
 H       -14.0044823779        2.2134502978        5.2062629484
 H       -14.9801468344        3.5515162743        4.4435415529
 H       -10.5649802378        5.8166281805        6.6822348668
 H       -11.5643233370        7.2171000937        7.0685834404
 H        -9.4323377115        8.0980658632        6.4873989566
 H       -10.4482313944        8.3763955983        5.1749088264
 H        -9.8967908451       10.1405849750        2.8245504438
 H       -10.1619022463        9.6465302314        1.2042536063
 H        -8.5355809823        9.9983111915        1.5833857767
 H        -8.2359459719        9.4240889156        4.7608101754
 H        -7.2610660124        9.4646657523        3.4472973122
 H        -6.7216089904        8.5762060165        4.8275878095
 H        -7.8553674494        5.8272924001        2.4110391027
 H        -6.7566336063        6.0661408303        3.6455271063
 H        -6.5430446503        7.2340444799        2.3878199946
 H       -15.4430556740        5.4182150689        4.8745410084
 H       -14.4572289852        6.3030499568        3.7557667345
 H       -14.7722093341        7.0116027746        5.3403353670
 H       -12.5769668068        5.0417252030        7.4737156653
 H       -14.1995949642        4.4373407435        7.1817605560
 H       -13.9176712925        6.1638603669        7.4124375583
 H       -12.3023505982        3.5101924919       -1.3954124917
 H       -11.8774618998        4.6208040714       -0.1821898422
 H       -13.5262557887        4.3036887215       -0.3192521184
 H       -14.2020555303        1.4938739893        0.4718035394
 H       -13.0272552354        0.5316423549        1.0380118508
 H       -12.9851874636        0.9377433118       -0.6328432181
 H        -5.7321056086       -2.0774650329        1.5561876758
 H        -7.3176279679       -2.3895940685        1.0207925664
 H        -7.1496859204       -1.4300244166        2.4933370678
 H        -4.9457437309        0.4831563195        1.2547073070
 H        -6.1544214395        1.0475489747        2.2773385383
 H        -5.9875030662        1.6033081325        0.7363690568
 H       -10.7471251503       -1.5770498962       -5.2708559647
 H       -10.6917492998       -0.0373929769       -6.1245423193
 H       -11.3392565519       -0.1209594260       -4.4902488432
 H        -8.5437256434       -0.4764541152       -6.7095428246
 H        -8.3476614787       -1.9676965160       -5.9799451822
 H        -7.2332896337       -0.8389537947       -5.6151449551
 H        -8.2049004033        6.0550041927       -9.3546520570
 H        -6.6160952145        5.8815268849       -8.8950539996
 H        -7.4817630623        7.5305724912       -8.5806699924
 H        -5.6924059261        5.7749489683       -6.6503567820
 H        -6.6102186350        5.7001079691       -5.1642005343
 H        -6.5444390065        7.1543136137       -5.9895927225
 Na      -10.4832183062        5.0198935495        2.9481028619
