117

 C       -10.1143968444        7.1047971527       -7.4912038528
 C        -8.9140634541        6.7146912029       -6.6145058977
 O        -8.6911687002        7.1442787575       -5.5101835922
 C        -7.7608050160        5.6689319680       -7.1880614209
 C        -8.4548177081        4.2251756093       -7.2015865478
 O        -9.4144631856        3.9765734644       -7.9585430841
 C        -8.0018046492        3.2803230200       -6.0713841309
 C        -8.5784690412        1.8637771094       -6.1818149722
 C        -8.9797191784        1.2353230364       -4.8272161891
 O        -9.0327872406        2.0146495287       -3.8568104893
 C        -9.2339703629       -0.3061496336       -4.7392236288
 C        -9.0320511739       -0.8485116680       -3.2556114046
 O        -9.9087557412       -0.7558336051       -2.4415280058
 C        -7.6780150727       -1.5019532533       -2.9452733395
 C        -7.5316948397       -1.6814823944       -1.4509733022
 C        -6.7481228276       -0.5243126647       -0.7965963804
 O        -6.2506498176        0.2954127062       -1.4893212151
 C        -6.8731074016       -0.2962579087        0.8006481986
 C        -8.4585033358        0.0836455804        1.0194487440
 O        -9.1481861120       -0.6109718415        1.7325629481
 C        -8.8266347086        1.3252536050        0.2141259879
 C       -10.3122529072        1.4294923777       -0.0215498983
 C       -10.9260845208        2.4725383067        0.9325955906
 O       -10.3652655566        3.0180886632        1.8637990894
 C       -12.5253967483        2.6442877127        0.8480839208
 C       -12.9619282945        3.2528450046        2.2156354841
 O       -12.8958051357        4.4590182074        2.3759119760
 C       -13.6089091409        2.3789797945        3.2408291609
 C       -13.7354059759        2.9788714398        4.6440891667
 C       -12.7325399623        4.1256495101        4.8945642931
 O       -11.5336910242        3.8658388219        4.8757704177
 C       -13.2319743965        5.6085471160        5.4129824434
 C       -12.0438899817        6.6167149573        5.3106785372
 O       -11.9037260426        7.3123769323        4.3058187310
 C       -10.9544339020        6.7299411720        6.3958769656
 C        -9.6851460148        7.4171877434        5.9164028768
 C        -9.0602133965        6.7755927362        4.6390334287
 O        -9.2761188811        5.6159239156        4.4366583887
 C        -8.2358331295        7.6619341043        3.6330688791
 C        -9.2614918418        8.0719672599        2.4166078981
 O        -9.9214456306        7.1896436731        1.8734731685
 C        -9.2898477258        9.4659359710        1.8061893300
 C        -7.5309676865        8.9059313565        4.3017714632
 C        -7.2272977393        6.6794152516        2.9403343678
 C       -14.4178149555        6.1707605186        4.6112320718
 C       -13.5223050292        5.3856770320        6.9559325570
 C       -12.8175614364        3.7800495606       -0.1407735536
 C       -13.1512516771        1.2884549193        0.3940613293
 C        -6.6390058261       -1.6396395157        1.6126944378
 C        -5.9802361195        0.8752252784        1.1616420005
 C       -10.7506446749       -0.5526108973       -5.1252595628
 C        -8.3608331383       -0.9740864876       -5.7674556921
 C        -7.3800942605        6.1497640435       -8.6627321774
 C        -6.4980522854        5.7592484987       -6.3768646121
 H       -10.0523776868        6.4405857540       -8.3955106188
 H       -10.0627577467        8.1863675928       -7.7555458493
 H       -11.0280520469        7.0294682290       -7.0473842674
 H        -8.4582248184        3.5831774403       -5.1241013345
 H        -6.8981027687        3.2183353885       -5.9791130962
 H        -7.8405726596        1.1540424536       -6.6772899513
 H        -9.4517792396        1.9214261961       -6.8319583653
 H        -6.9060677876       -0.8330033621       -3.3526715604
 H        -7.5901638295       -2.4657172415       -3.5313015939
 H        -6.9419845693       -2.5967029463       -1.2962137930
 H        -8.5744856555       -1.7970224432       -1.0854838779
 H        -8.3060722284        1.1639639208       -0.7479437564
 H        -8.5005530999        2.2178788983        0.6320516141
 H       -10.7977393301        0.3882428179        0.1255044483
 H       -10.4897144616        1.7054013851       -1.0476987902
 H       -13.1957363127        1.3628916930        3.1806423901
 H       -14.5782195355        2.1648970301        2.7873307268
 H       -13.5802512916        2.3041025585        5.4497572613
 H       -14.8420001007        3.3351970601        4.9499529581
 H       -10.6517062127        5.7263974018        6.7342962594
 H       -11.3219606249        7.3047259976        7.2214276021
 H        -8.9447831248        7.4283523178        6.7108813175
 H        -9.9293433719        8.4283987817        5.6540317848
 H        -9.0057115087       10.3628977142        2.3910516738
 H       -10.3801391552        9.6360525382        1.6173814088
 H        -8.7030074683        9.5874757850        0.8485988036
 H        -8.2101422110        9.5839268089        4.7101988483
 H        -6.9148343709        9.3349773829        3.5859807429
 H        -6.8421994395        8.6690369017        5.1111982221
 H        -7.8059410522        5.7293762538        2.5772597196
 H        -6.4469864139        6.3159327385        3.5393945956
 H        -6.8399714237        7.2802849997        2.0757691619
 H       -15.4381787430        5.6640144573        4.6770994409
 H       -14.2289015630        6.1933524441        3.5222894096
 H       -14.5319388156        7.2173057488        4.8972403569
 H       -12.6418950447        4.9817418952        7.3819365976
 H       -14.3311828471        4.6484015050        7.1625994248
 H       -13.7597534888        6.2043192019        7.5743684337
 H       -12.3259648333        3.6222687224       -1.1045545341
 H       -12.4490599433        4.6616669824        0.3446745448
 H       -13.9340764269        3.8919208075       -0.1640147300
 H       -14.2256556797        1.2133448469        0.5889927053
 H       -12.7522086886        0.4447283628        1.0011344823
 H       -13.0050497443        1.0865199409       -0.7090413954
 H        -5.6865888946       -2.0846660899        1.3910284417
 H        -7.4385169647       -2.3392837861        1.3890053762
 H        -6.7185090502       -1.4297155030        2.7012352522
 H        -4.9252457354        0.4580501870        1.1639686899
 H        -6.0176422875        1.3686675568        2.1193692286
 H        -5.9587134148        1.6033452424        0.3632831318
 H       -10.8282687729       -1.6606567042       -5.2113600659
 H       -10.9834104579       -0.1024511020       -6.1029590712
 H       -11.4706204615       -0.2654596704       -4.4083452451
 H        -8.7228669113       -0.8723539009       -6.7843250858
 H        -8.1531001333       -2.0148534578       -5.6200985132
 H        -7.3610710864       -0.5685362180       -5.8419146850
 H        -8.1461481357        6.1763153123       -9.4154520021
 H        -6.6364582046        5.4334758646       -9.0494343479
 H        -6.7958699738        7.0955671383       -8.5636563851
 H        -5.9482493924        4.8786171916       -6.2840828070
 H        -6.7334316952        6.1222506344       -5.3449302221
 H        -5.8465743444        6.5802312464       -6.8345611950
 Na      -10.6637780350        5.0403440354        2.7060077366
