117

 C       -10.1108943525        7.2405345795       -7.4966610711
 C        -8.9945727237        6.8393639670       -6.5153512767
 O        -8.8098699616        7.2730126796       -5.3981636128
 C        -7.8621131184        5.8286010290       -7.1408280608
 C        -8.4890530593        4.3847278870       -7.1641740782
 O        -9.2156292406        4.0806726417       -8.0690060182
 C        -8.1145798665        3.4433892474       -5.9708268056
 C        -8.8294929347        2.0575697620       -6.1777291141
 C        -9.0610878464        1.3507332585       -4.7885671270
 O        -9.2338017495        2.0125937676       -3.8353646348
 C        -9.2114099395       -0.2782666534       -4.6939442866
 C        -8.9559161675       -0.9209479568       -3.2885688128
 O        -9.9145304998       -0.9506816932       -2.5297407011
 C        -7.5911111042       -1.5636065240       -2.9328628408
 C        -7.2501618596       -1.8538863879       -1.4271653345
 C        -6.6906208174       -0.6168173645       -0.7387859858
 O        -6.1636068733        0.3037088968       -1.3889649845
 C        -6.8821922824       -0.3554356697        0.7970438949
 C        -8.3686468045        0.0543002764        0.7935004288
 O        -9.2086462443       -0.6553170490        1.3244167349
 C        -8.7553130822        1.4056658310        0.1194358344
 C       -10.2661041953        1.5024294628       -0.0433276166
 C       -10.8652700054        2.4065989949        1.0410451641
 O       -10.1775444763        2.9206610540        1.9245196787
 C       -12.4862072640        2.6782535493        0.8222558734
 C       -12.9799843382        3.3472657320        2.1198000485
 O       -12.7677631440        4.5016805409        2.5106227271
 C       -13.6570808991        2.3933940876        3.1876562668
 C       -13.8712098084        3.0588110400        4.5555560768
 C       -12.7408576369        4.0924129597        4.8593076038
 O       -11.5560219561        3.8621871432        4.6924187273
 C       -13.2216802330        5.4435081237        5.4320236922
 C       -12.0645693884        6.5071712064        5.2237611593
 O       -11.9494040542        7.0348065195        4.1525739947
 C       -10.9811614033        6.6951828710        6.3073603044
 C        -9.8213840249        7.5692902097        5.7797329014
 C        -9.1394451935        6.8324987557        4.6466655389
 O        -9.1214608547        5.6106566634        4.6191952404
 C        -8.3214389648        7.5943459833        3.5868585104
 C        -9.3012791706        8.0125486863        2.3763220066
 O        -9.9791245439        7.1702105892        1.8879670936
 C        -9.3522081520        9.4771563245        2.0019650370
 C        -7.5955524370        8.7847895055        4.2353202696
 C        -7.2012594561        6.6925834064        2.9148404856
 C       -14.4412512695        6.0485473226        4.6975159090
 C       -13.6425310130        5.1774580509        6.9531722078
 C       -12.5434403346        3.5973672040       -0.4440726769
 C       -13.2871548668        1.3868472913        0.4902732799
 C        -6.5258805869       -1.5827096152        1.6832658864
 C        -6.0581194853        0.8366768526        1.3052005975
 C       -10.6707961670       -0.5128438490       -5.0501779800
 C        -8.2938451411       -0.9449406637       -5.6736632496
 C        -7.5821381664        6.1026846218       -8.6511205439
 C        -6.6388821031        5.9139653365       -6.2740373428
 H        -9.8926102721        6.9616396476       -8.4980816667
 H       -10.2767527758        8.3004130303       -7.4333313556
 H       -11.1232251897        6.8459711173       -7.1847524035
 H        -8.4690557641        3.7017412138       -4.9623577890
 H        -7.0464737394        3.2836269440       -6.0076296995
 H        -8.4030721756        1.4888535536       -6.9735823907
 H        -9.8737217938        2.2643001927       -6.5240795635
 H        -6.7615146906       -0.9971804689       -3.3854027001
 H        -7.6495344538       -2.4779260184       -3.5008530320
 H        -6.5146657675       -2.6594946118       -1.3668311295
 H        -8.1353187158       -2.1444579262       -0.9266548128
 H        -8.1754266996        1.5731398403       -0.7697350491
 H        -8.5469311780        2.1994426431        0.8811926319
 H       -10.6553331180        0.5151050560        0.0103124801
 H       -10.6128439159        1.9014780167       -1.0527394920
 H       -13.0646307213        1.4719865256        3.1696476147
 H       -14.6340469162        1.9765834198        2.8549090038
 H       -14.0316947764        2.3193475821        5.3963648518
 H       -14.7790268679        3.5500103839        4.5098436733
 H       -10.5715212001        5.6900210744        6.5189699537
 H       -11.4409899561        7.1593233880        7.2341527531
 H        -8.9307012156        7.6930414420        6.4600750724
 H       -10.1956683915        8.5990795940        5.4876811007
 H        -9.0174243852       10.1248046951        2.8484553743
 H       -10.2908323176        9.8935838713        1.7019999693
 H        -8.6673105982        9.6654998100        1.1967683293
 H        -8.2297102389        9.5562978596        4.7650754062
 H        -6.8397286031        9.3096700250        3.5024710950
 H        -6.9845156394        8.3648955266        5.0623989119
 H        -7.5902092606        6.1267484093        2.1567035555
 H        -6.9359449600        5.8486736920        3.6287742848
 H        -6.3380231847        7.2549046748        2.6787727525
 H       -15.2598013560        5.4335662475        4.6610727543
 H       -14.1671280835        6.0474843445        3.6378725065
 H       -14.7632792899        7.0268386799        4.9753131650
 H       -13.0771265019        4.4302486451        7.5093243590
 H       -14.6610774716        4.8428150699        6.9782900904
 H       -13.5897275710        6.0483605199        7.6179844178
 H       -11.7288895149        3.2690973065       -1.1016026253
 H       -12.3884564187        4.6819048262       -0.1319826782
 H       -13.5293334993        3.5424882084       -0.8765431972
 H       -14.3805136640        1.5494202377        0.3976092266
 H       -13.2663199278        0.6629708291        1.3127950439
 H       -12.9078397114        0.9244777230       -0.4019339721
 H        -5.4138863281       -1.5089842217        1.7186547991
 H        -6.7569444412       -2.5980922819        1.3363607459
 H        -6.9193950109       -1.4416948430        2.6614446226
 H        -5.0550012175        0.6360046248        1.6499629701
 H        -6.5459028015        1.1833371001        2.2446687108
 H        -5.9703696572        1.7302082318        0.5652754683
 H       -11.0346401984       -1.4960119263       -4.8134454502
 H       -10.8729847078       -0.2454735148       -6.0855976652
 H       -11.2618370569        0.1882916561       -4.4086762538
 H        -8.4531805307       -0.7398762604       -6.7348816817
 H        -8.4174355951       -2.0610641873       -5.6228699564
 H        -7.2169709286       -0.9262794506       -5.5089797913
 H        -8.2960266611        5.5439809874       -9.2510061957
 H        -6.6577045415        5.6654042696       -9.0062470371
 H        -7.6718360810        7.1568251135       -8.8099439867
 H        -5.8961371221        5.1074184110       -6.5530508183
 H        -6.9634175380        5.6703080035       -5.2855550023
 H        -6.1939675314        6.8674183801       -6.1575251689
 Na      -10.3898439603        5.1009335093        2.8349392137
