117

 C       -10.2734000021        7.1646574756       -7.3765474348
 C        -9.1158760662        6.8486695792       -6.4462363150
 O        -9.1542865988        7.1905862422       -5.2713018542
 C        -7.9742233730        5.9099217589       -7.0005042273
 C        -8.6591074536        4.4681531227       -6.9093700900
 O        -9.1765962338        4.0257517016       -7.9059833490
 C        -8.5475181180        3.7212159052       -5.5882018454
 C        -9.0676949532        2.3047714662       -5.7587805834
 C        -9.1443654381        1.4083421207       -4.5231873591
 O        -9.0944161066        1.8286221808       -3.3941008269
 C        -9.1394326708       -0.1889317399       -4.7567672396
 C        -8.7449355427       -0.7854907161       -3.3257323967
 O        -9.5881050753       -0.6924477575       -2.4211079308
 C        -7.3475121382       -1.2654098944       -3.1565535758
 C        -7.0516981250       -1.7211541198       -1.6851932971
 C        -6.3506746266       -0.5822515808       -0.8602403511
 O        -5.5666236979        0.1701383110       -1.4198102385
 C        -6.7488108455       -0.4933087397        0.6552742430
 C        -8.3037258799       -0.0700839487        0.6137172437
 O        -9.1854561705       -0.8301332755        0.9348397785
 C        -8.6627081441        1.3309617752        0.0542196429
 C       -10.1983752627        1.3851299796       -0.1112682763
 C       -10.8806925654        2.4859715002        0.7413133687
 O       -10.2674413171        3.2375125692        1.5191797143
 C       -12.4202153877        2.8056743620        0.5398306363
 C       -12.9822008033        3.2621327501        1.9735768241
 O       -13.0876535486        4.4382512350        2.2977636698
 C       -13.4967814573        2.2362461952        3.0727945380
 C       -14.0399868545        3.0700319951        4.2524996734
 C       -12.9650139525        4.0285108023        4.8143910272
 O       -11.8018683333        3.6361837011        4.8690535723
 C       -13.2802720535        5.4496735544        5.5151593940
 C       -12.0716567884        6.3448721329        5.1540230448
 O       -11.9489305708        6.6062750439        3.9619033810
 C       -11.1000275504        6.8698245293        6.3021801117
 C        -9.8414812677        7.7290617020        5.8069684763
 C        -8.9551554963        6.8570131559        4.8534661000
 O        -8.9067641777        5.6442773815        4.8809488674
 C        -8.2066335453        7.6193376818        3.6605532285
 C        -9.3680619397        7.9217218924        2.5413035495
 O        -9.9432825194        7.0217828214        2.0285805775
 C        -9.5869235228        9.3546641432        2.1602353410
 C        -7.4963856331        8.8343926691        4.2140103620
 C        -7.1460611719        6.6667346502        2.9229507897
 C       -14.5405215593        6.0773455415        4.8737857813
 C       -13.4867658349        5.2398047913        6.9851225237
 C       -12.6564537988        3.9210804708       -0.5238280448
 C       -13.1743848006        1.4686104190        0.0556156308
 C        -6.5191787178       -1.8263202049        1.3704250724
 C        -5.9244238344        0.6067732944        1.3376880221
 C       -10.6366372591       -0.7720165889       -4.9575828804
 C        -8.2165681066       -0.5888430659       -5.8357348679
 C        -7.6655190069        6.2264335775       -8.5056400024
 C        -6.7140747601        6.0429127362       -6.0616240529
 H        -9.9447177268        7.6351506381       -8.3009558124
 H       -11.0424228686        7.8292268068       -6.9728021757
 H       -10.7417568333        6.2412466183       -7.6059035883
 H        -9.0287548708        4.2960467918       -4.7530825533
 H        -7.4623277609        3.6967166666       -5.4750493567
 H        -8.5111524982        1.9589027262       -6.5917330366
 H       -10.0664388046        2.3900661232       -6.2816666137
 H        -6.6728429996       -0.4253881475       -3.5047013910
 H        -7.2309735865       -2.0935348315       -3.8747375736
 H        -6.3169230365       -2.5200709336       -1.7621854186
 H        -7.9031857782       -2.1623334604       -1.2540465250
 H        -8.2147727510        1.4781462451       -0.9038825798
 H        -8.2951352383        2.0718322483        0.7074775933
 H       -10.7005070586        0.4097220071       -0.0795988640
 H       -10.4156162741        1.7295049467       -1.1888332627
 H       -12.6953210534        1.5269989112        3.3410406233
 H       -14.3019734933        1.5716122744        2.6393178317
 H       -14.3869186520        2.3737030917        5.0086850523
 H       -14.8171910198        3.7746584041        3.8831302850
 H       -10.6233277828        5.9821897609        6.7701977913
 H       -11.6460583665        7.4729653369        7.0808017202
 H        -9.3009242755        8.1165172488        6.7082704179
 H       -10.0288143579        8.6924720614        5.2579053352
 H       -10.3358074093        9.8721698425        2.8170584818
 H       -10.0158300021        9.4991202515        1.1625087308
 H        -8.7412362820        9.9399583239        2.0634166370
 H        -8.1163314681        9.6687124089        4.3848950682
 H        -6.8635169260        9.2905287324        3.4244451798
 H        -6.9118989854        8.5350862927        5.1149205263
 H        -7.5116214892        5.6428729226        2.9030677944
 H        -6.1095286249        6.6366473005        3.2948472254
 H        -7.0112485474        7.0517926777        1.9259670365
 H       -15.4412044925        5.6992536689        5.3190834973
 H       -14.6596532011        6.0671741922        3.7392225318
 H       -14.5620028069        7.1191256010        5.1659526650
 H       -12.6577287420        4.8723990937        7.5273580370
 H       -14.2930257478        4.5278442293        7.1622511370
 H       -13.7960140856        6.1403642080        7.4573488796
 H       -12.7830177015        3.4295429416       -1.4958781610
 H       -11.8147580994        4.6879258869       -0.6297521704
 H       -13.5698796239        4.4596343497       -0.2454273946
 H       -14.2964371688        1.5234803836       -0.0486066547
 H       -12.9766604908        0.5327447608        0.6343423148
 H       -12.7815706452        1.2437097700       -0.9566165350
 H        -5.5417937095       -2.2680257047        1.0334151866
 H        -7.2394398571       -2.5498807734        0.9905896532
 H        -6.5421225708       -1.7471689159        2.4202498468
 H        -4.7972014395        0.5368702044        1.2598031105
 H        -6.1426853637        0.7826517105        2.4253182829
 H        -6.1043680276        1.6707992747        0.8913399909
 H       -10.6943342802       -1.7957223797       -5.3081144232
 H       -11.1735848397       -0.1631156524       -5.6911651637
 H       -11.1418585923       -0.6692282916       -3.9880623467
 H        -8.5589492678       -0.5470028457       -6.8559597208
 H        -7.9294946534       -1.6526145550       -5.7876338037
 H        -7.2618616691       -0.1270521670       -5.7870713056
 H        -8.5695664757        6.1745987976       -9.0866456369
 H        -6.9320670063        5.5488500777       -8.9655756390
 H        -7.3646403162        7.2658222441       -8.4934653710
 H        -6.0257682921        5.2141121752       -6.3423969263
 H        -6.8972318488        6.0130416716       -5.0150716601
 H        -6.1249536319        6.9691885820       -6.2306042847
 Na      -10.6316975369        4.8700747127        3.0259253521
