117

 C        -9.7016838893        6.3598352598       -7.5387978327
 C        -8.3235861791        6.0423068340       -6.9275134019
 O        -8.0682508319        6.5042145579       -5.8430078613
 C        -7.2391187640        5.0365134948       -7.6952192418
 C        -7.9265296283        3.6100178137       -7.3944669826
 O        -8.9271545866        3.2829061575       -7.9788867634
 C        -7.3210342329        2.7832144022       -6.2395487474
 C        -8.0605304382        1.4375744674       -6.1244615730
 C        -8.5326310640        0.9663881126       -4.7174619129
 O        -7.9933342909        1.3899028754       -3.7313333940
 C        -9.6184961061       -0.2084853577       -4.6181233307
 C        -9.5613436054       -0.6780379577       -3.0974111889
 O       -10.4335551152       -0.2531759880       -2.3028422700
 C        -8.3767562424       -1.5258633354       -2.7128649751
 C        -8.2260203512       -1.5501031715       -1.1439769229
 C        -7.1119867199       -0.5305450065       -0.7547392410
 O        -6.4310909908       -0.0650802417       -1.6314370561
 C        -7.0329684451       -0.2118682360        0.7304787847
 C        -8.4947234808        0.2322892252        1.1000572224
 O        -9.1504403935       -0.1639589872        2.0409056173
 C        -9.1387171207        1.3792527979        0.1708162035
 C       -10.6847967854        1.3741174432        0.3537251679
 C       -11.3688391070        2.5913319082        0.9405031127
 O       -10.7204149935        3.4914660218        1.4735882789
 C       -12.9811286893        2.4839079744        1.0487897820
 C       -13.3734085435        3.3859666785        2.3388840586
 O       -13.2695590468        4.5921747534        2.3614708738
 C       -13.9888871819        2.6978651166        3.5012773948
 C       -14.1965452356        3.5533786184        4.7788301011
 C       -12.9357267044        4.3587270413        5.1015366167
 O       -11.8118615289        3.9658049072        4.7895266058
 C       -13.0481582244        5.6999327906        5.8521567925
 C       -11.7842277613        6.6556385910        5.5165924821
 O       -11.7614300368        7.2417323438        4.4801326261
 C       -10.5164867407        6.6322169063        6.3343729399
 C        -9.4281631995        7.5647048046        5.7445818852
 C        -8.9257941812        7.0692337880        4.3892101391
 O        -9.0515403180        5.8947640866        4.1025720680
 C        -8.1240966646        8.0468525275        3.3674868619
 C        -8.9961917980        8.2273662223        2.0834362683
 O        -9.9085885571        7.4042709049        1.8535322097
 C        -8.6927567659        9.3824541768        1.2581285766
 C        -7.5393228718        9.2453476479        4.0996109417
 C        -6.8917237572        7.1800538057        2.8146335304
 C       -14.2496232882        6.5220715612        5.3448296166
 C       -13.0451064038        5.3403639148        7.3694374392
 C       -13.4759736561        3.4601700600       -0.1189372105
 C       -13.4711430710        1.0024785063        1.0557860770
 C        -6.5499493085       -1.3826150173        1.5856722073
 C        -6.0646081832        1.0427319497        0.9409906097
 C       -11.0157913954        0.3976725899       -4.9463757279
 C        -9.2571498126       -1.2755718755       -5.6830934586
 C        -7.2534373324        5.4808053575       -9.1314303884
 C        -5.9457477812        5.3298488205       -6.9484606255
 H       -10.0567987597        5.5494798406       -8.1156800404
 H        -9.5919864873        7.2101440310       -8.1991152604
 H       -10.4603347388        6.4525818935       -6.6541458194
 H        -7.3530216671        3.4074476297       -5.3333820015
 H        -6.2319946917        2.6619981842       -6.3758789183
 H        -7.4927340490        0.5993279617       -6.5574674918
 H        -8.9261881995        1.5093183324       -6.7612156782
 H        -7.5657578805       -0.9604906940       -3.1515113752
 H        -8.3728108003       -2.5060749033       -3.1937497444
 H        -8.0064771256       -2.6069230966       -0.8115479881
 H        -9.0964478632       -1.2845387711       -0.5792838830
 H        -8.9957340122        1.2879591155       -0.9255820126
 H        -8.6529060658        2.3531133871        0.4091379559
 H       -10.7968266738        0.6903060138        1.2075421520
 H       -11.0206086615        1.0044039921       -0.5618999479
 H       -13.4824423620        1.7315714161        3.6985939957
 H       -14.9970231574        2.5338242037        3.1628787878
 H       -14.3431050620        2.8590527445        5.6959235803
 H       -14.9146239695        4.2892718049        4.6138407261
 H       -10.2945031490        5.5551160471        6.4049828561
 H       -10.6767829338        6.8953594769        7.3558439565
 H        -8.5730936088        7.6279348629        6.4370964648
 H        -9.8113843536        8.5709777101        5.7512228369
 H        -8.5386683495        9.1036478842        0.1936477971
 H        -7.8097751528        9.8973018908        1.6376763075
 H        -9.5588549154       10.0596050217        1.2018109769
 H        -8.3253592381        9.9854400715        4.3509520103
 H        -6.7234180223        9.7230830889        3.4840861937
 H        -7.0919215175        8.9786463813        5.0141970282
 H        -7.3012992139        6.3048399407        2.4370360912
 H        -6.2599858354        6.8589974054        3.7326681486
 H        -6.2470569593        7.7290498946        2.1663863930
 H       -15.2593344517        6.1820516789        5.5747131763
 H       -14.1472866040        6.5210360108        4.2379210420
 H       -14.1840823359        7.5686757751        5.7348837555
 H       -12.1879323149        4.6718349232        7.6099250100
 H       -13.9295403935        4.7060544521        7.4426942801
 H       -13.0131560009        6.2018158926        8.0635923990
 H       -13.2962317755        3.1441431590       -1.1165464899
 H       -12.9599776175        4.4032116359        0.1407885764
 H       -14.4845084907        3.6736019090        0.0931204262
 H       -14.4756399648        0.7984419215        1.4092100767
 H       -12.8607573248        0.4682532223        1.7638553845
 H       -13.2468117529        0.6388330985        0.0814111691
 H        -5.4765062556       -1.5868952927        1.3587095398
 H        -7.0682426809       -2.2822380494        1.2587850862
 H        -6.7467084351       -1.2346832592        2.6057204336
 H        -5.1338444962        0.9504046362        0.3501889771
 H        -5.8726513886        1.0510877601        2.0368689624
 H        -6.6029226885        1.8514734215        0.6355609432
 H       -11.8630038558       -0.1695402417       -4.5799434691
 H       -11.0997902001        0.4744016482       -6.0266648953
 H       -11.0580016927        1.4219938456       -4.5741304297
 H        -9.5186481188       -0.8069654374       -6.6385034029
 H        -9.8913064506       -2.1817147710       -5.5202016544
 H        -8.2392738508       -1.5888877022       -5.6365487629
 H        -8.2159455675        5.2801914828       -9.5892414707
 H        -6.6294247364        4.8969875517       -9.8511165589
 H        -7.0622487068        6.5668505354       -9.1356915206
 H        -5.1737919661        4.7396664661       -7.5002008404
 H        -5.9242441381        5.0755403736       -5.9310613501
 H        -5.7433966594        6.3805667790       -6.9980446168
 Na      -10.9624354927        5.5253219911        2.6834763091
