117

 C       -14.2415194943        3.3004675926       -2.0281042037
 C       -12.9703846054        2.9450231599       -1.1489329055
 O       -12.1930776841        2.0761140571       -1.5035507978
 C       -13.2171828491        3.1362958740        0.4892698097
 C       -11.8847378526        2.5164202362        1.1882069825
 O       -10.8148469108        2.5466356702        0.5930240491
 C       -12.1773269407        1.8234068422        2.5971708242
 C       -10.8696805927        1.0929024954        2.9705945159
 C       -11.2431633483       -0.3657861266        3.2042127986
 O       -12.3701805210       -0.6281498956        3.4541152321
 C       -10.2171955862       -1.5295902624        2.9860806247
 C       -10.1608808343       -1.6855323907        1.3722110527
 O        -9.8034390437       -0.6774683668        0.7028969421
 C       -10.3574408205       -2.9422325953        0.5370737497
 C        -9.8156786590       -2.9460117428       -0.8872284021
 C       -10.3935059480       -2.0406841264       -2.0845634223
 O       -11.0456820014       -1.0172901657       -1.8840684245
 C        -9.8121292163       -2.2230439083       -3.5112960922
 C        -8.6183276841       -1.1270799664       -3.7536046894
 O        -7.7769181131       -0.9445657702       -2.8835169384
 C        -8.5838110616       -0.4093775832       -5.1530352394
 C        -7.5045437510        0.7320852420       -4.9252954654
 C        -7.9617419153        1.4966583109       -3.6305927364
 O        -9.1857150126        1.3702586216       -3.3879908311
 C        -6.9753513838        2.3894419828       -2.7418614083
 C        -7.5975637982        3.6464342207       -1.9673748381
 O        -8.8265839844        3.8053800849       -1.7742694098
 C        -6.7162461317        4.7815359972       -1.5300741441
 C        -7.4551294997        5.9618735799       -0.9590695368
 C        -6.6592908898        6.4071263677        0.3439642847
 O        -5.4550928076        6.2537009432        0.4428683953
 C        -7.2855162302        7.3343067395        1.3859338374
 C        -8.2583612098        8.3534694193        0.7370082327
 O        -9.1587770933        7.9176448888        0.0602639248
 C        -8.0790620316        9.8276324855        0.9306399644
 C        -9.4191004832       10.5887729761        0.5924559890
 C       -10.1326321337       11.2979102064        1.7088800348
 O        -9.7188770002       11.3127817562        2.8404954208
 C       -11.4852817293       12.0006646606        1.3642897109
 C       -12.4346129454       10.9785478776        0.5439983097
 O       -12.4643473637       11.0814668354       -0.6639730718
 C       -13.1841266265        9.9674735798        1.4583609521
 C       -12.0307464848       12.5912975733        2.6669233154
 C       -10.9815614491       13.2465180482        0.4859171490
 C        -8.1876453563        6.4812671088        2.3701614983
 C        -6.1917688726        7.9204428832        2.3021248080
 C        -6.5682045611        1.3286925610       -1.5620884673
 C        -5.6576904785        2.6125386799       -3.4349309334
 C        -9.3603687155       -3.7985762417       -3.7032682976
 C       -11.0060058435       -1.9142231895       -4.4170674646
 C        -8.9814075903       -1.0187755288        3.5277612462
 C       -10.8213569939       -2.8257302540        3.4413656721
 C       -13.1470931065        4.7240256898        0.6977038120
 C       -14.7348886021        2.8019988738        0.8597416207
 H       -14.9821915068        3.8550035932       -1.4273283908
 H       -14.5460784108        2.3338486733       -2.3261747089
 H       -13.9938050189        3.6933036827       -3.0031836020
 H       -13.0353556656        1.1017769349        2.3267642095
 H       -12.5409728729        2.4102463643        3.4222904711
 H       -10.3705328176        1.5647541197        3.8794486056
 H       -10.0775849938        1.1821177143        2.2862113594
 H       -11.4322073184       -3.2300205372        0.4306832548
 H        -9.7996809633       -3.8870380405        0.9502318077
 H        -9.8832353428       -4.0298693002       -1.1749579976
 H        -8.7042672736       -2.6839397382       -0.7792745152
 H        -9.5576206347       -0.2135450558       -5.6170650701
 H        -8.0189008569       -1.2244915668       -5.7956117858
 H        -7.6571489590        1.3252473905       -5.9374957885
 H        -6.4649927089        0.3787745209       -5.0503205756
 H        -6.1101302325        5.1390596446       -2.2582089838
 H        -6.2083601450        4.3626156267       -0.6979192056
 H        -8.3690635102        5.4291062596       -0.6221246453
 H        -7.8188401083        6.8819838258       -1.4891036568
 H        -7.4371924804       10.0720927590        0.0801223725
 H        -7.7227587567       10.0156229932        1.9865428881
 H       -10.0961938325        9.8897976274        0.0457183807
 H        -9.0879634149       11.3652335042       -0.0939955755
 H       -13.6373451092        9.1179209009        0.9233808989
 H       -13.9948418878       10.3962962557        1.9687728596
 H       -12.6134013523        9.5740653048        2.2768407978
 H       -12.9866410355       13.0897623125        2.4965163921
 H       -11.3439960501       13.3033847616        3.0248911128
 H       -12.0486576356       11.9429055361        3.5291429728
 H       -11.5736611613       14.1898493282        0.8909207996
 H       -11.2266239065       13.0961440669       -0.6649464433
 H        -9.9178069371       13.4817682233        0.5924745786
 H        -9.0370477134        6.9439864017        2.8217171910
 H        -7.6716291628        6.1852987180        3.1908944089
 H        -8.5251927564        5.5175559003        1.8254552496
 H        -6.7960069676        8.5821806873        2.9972854179
 H        -5.4666397166        8.4817485683        1.6737477786
 H        -5.5177391646        7.2468661925        2.9210640637
 H        -6.4470547171        0.2912931259       -1.9432158005
 H        -7.4390823376        1.3706407891       -0.8242324345
 H        -5.6746155117        1.5694636481       -0.9980224535
 H        -5.2105584214        3.4608643488       -3.0004560495
 H        -5.7780066096        2.8369456498       -4.5152033211
 H        -4.9768575401        1.7914421973       -3.3079749974
 H        -8.4090446017       -3.8298624344       -3.1723113262
 H        -9.0696939025       -4.0377329983       -4.6752753291
 H       -10.2185419088       -4.4337090068       -3.4734623831
 H       -11.2146898883       -2.3312296141       -5.4001854624
 H       -11.0003340651       -0.8823185078       -4.6876946504
 H       -11.9579363664       -2.0593397372       -3.8598247464
 H        -8.4811745292       -0.2420654548        3.0499818238
 H        -8.3069507734       -1.8548242551        3.7011255617
 H        -9.1548137575       -0.4876818743        4.4436305481
 H       -11.1190051007       -2.6383966615        4.4544992510
 H       -10.0025916508       -3.5954946645        3.2349308771
 H       -11.6236195916       -3.1687104651        2.8506109939
 H       -13.7010122984        4.9470251071        1.6406882332
 H       -13.6899860354        5.1699967309       -0.1015516070
 H       -12.0622972936        5.0120096826        0.7382795965
 H       -14.7741749683        2.7864377906        1.9621902526
 H       -14.9395955776        1.7305611702        0.6363223766
 H       -15.3738123431        3.4695221406        0.3947471564
 Na      -10.0693657935        0.9466937825       -1.0443333195
