117

 C        -9.7252394993        6.5208919487       -7.5542131923
 C        -8.3829372078        6.2665995119       -6.8586910201
 O        -8.2083367831        6.6812593084       -5.7222138206
 C        -7.3703755284        5.2203366432       -7.5703988535
 C        -8.0779950304        3.8320379640       -7.3389690975
 O        -9.0126584487        3.5198817963       -8.0919823390
 C        -7.4572076177        2.8754740786       -6.2807989327
 C        -8.1403939537        1.4997326163       -6.3021710924
 C        -8.5034638443        1.0268330769       -4.8815918701
 O        -8.1529653946        1.6970888813       -3.9211728680
 C        -9.4415030618       -0.2213500215       -4.6884433960
 C        -9.4096186466       -0.8387303693       -3.2534432317
 O       -10.3126774369       -0.5924021047       -2.5078355668
 C        -8.3140497939       -1.9018440050       -2.7239390944
 C        -8.1200449251       -1.7142457762       -1.2718453452
 C        -7.1265734301       -0.5808621595       -0.8196490298
 O        -6.2942878481       -0.0998398677       -1.5208663529
 C        -7.0439234849       -0.1257371242        0.7704051136
 C        -8.4470766599        0.3726324354        1.2429957657
 O        -8.9350291707       -0.0392733199        2.2847135229
 C        -9.1217564883        1.3782978441        0.3266307084
 C       -10.7121950630        1.3496859717        0.3728656732
 C       -11.3026805540        2.5713509306        0.9192687787
 O       -10.5644507050        3.4959781999        1.1032055949
 C       -12.9076194085        2.6183853388        1.0851995015
 C       -13.2865908531        3.3732618280        2.4071769949
 O       -13.0814865344        4.5709700655        2.5624997230
 C       -13.9262141781        2.6075332830        3.5387472325
 C       -14.0406510412        3.4336198921        4.8007852867
 C       -12.7715026056        4.3416629789        5.1077239401
 O       -11.6919048011        4.0025945708        4.7497261602
 C       -13.0152196780        5.7134137753        5.7528979397
 C       -11.8257562400        6.6692055162        5.4514979650
 O       -11.7854288201        7.3929141241        4.4511655428
 C       -10.5850496060        6.6122842078        6.3382263596
 C        -9.4624984184        7.4814623562        5.7499544988
 C        -8.9042397312        6.9279655295        4.4023033720
 O        -9.1880312137        5.7640786449        4.1452360098
 C        -8.1360867500        7.8499646278        3.3949828292
 C        -9.0468188225        8.1522458637        2.2250291835
 O        -9.9758188822        7.4687106103        1.9279503087
 C        -8.7509888296        9.4600608518        1.3899556947
 C        -7.6962155864        9.1684044787        4.0944964270
 C        -6.9043739165        7.0550087618        2.9797912844
 C       -14.2923348605        6.4829278451        5.2570034750
 C       -13.3235467401        5.4387436570        7.2596615846
 C       -13.4200756864        3.4212071243       -0.1620336185
 C       -13.6307066886        1.1355582003        1.0005328155
 C        -6.7230819079       -1.3736604839        1.6133690159
 C        -5.8909435247        0.9246778994        0.8990892181
 C       -10.8138522047        0.3159934843       -4.8809357280
 C        -9.1434780951       -1.3313403802       -5.7177009290
 C        -7.3447023084        5.4670528202       -9.1009790330
 C        -5.9840752607        5.3952838119       -6.8611408811
 H       -10.1166128732        5.6917490115       -8.2170819971
 H        -9.7056299206        7.4600125854       -8.1206677613
 H       -10.3669073657        6.5196266868       -6.7758104648
 H        -7.4452413684        3.3306177851       -5.2771807882
 H        -6.3832667032        2.7098344086       -6.3580821331
 H        -7.4818121434        0.7766170155       -6.7916586954
 H        -9.1328744025        1.4748386063       -6.8380431450
 H        -7.3862618584       -1.9678887637       -3.3361857314
 H        -8.8262084920       -2.8678572862       -2.8418209158
 H        -7.7153741911       -2.6442868881       -0.8596060096
 H        -9.1622770992       -1.6299664235       -0.8081035288
 H        -8.7126606829        1.4156637068       -0.6870087265
 H        -8.7601274955        2.3524462294        0.7594581033
 H       -10.9011977359        0.5921790638        1.1270940133
 H       -11.0504271576        1.1282317669       -0.6864676312
 H       -13.3503999577        1.7490566678        3.8029171873
 H       -14.9547144484        2.3250192858        3.2513408052
 H       -14.1558479598        2.7898570796        5.6167953180
 H       -14.8382324774        4.2153131143        4.7513020039
 H       -10.2846775147        5.5838795458        6.3242969367
 H       -10.7740766186        6.7649196128        7.4103962568
 H        -8.6370145894        7.5135686339        6.4537692527
 H        -9.8385047962        8.5021696219        5.6689433674
 H        -9.0255577248        9.3780353442        0.3502327617
 H        -7.6629821993        9.7402680345        1.4838100987
 H        -9.4609639702       10.3116089758        1.6658577229
 H        -8.5598986152        9.7373735759        4.4348733825
 H        -7.2146938419        9.8426487820        3.4784425657
 H        -7.1238539036        8.8765187498        4.9771972773
 H        -7.1123958500        5.9206332877        3.0103972728
 H        -6.1382086862        7.3369599678        3.6279079084
 H        -6.5846625660        7.3871853251        1.9337076981
 H       -15.1990348000        6.0934824623        5.7845720601
 H       -14.4562249526        6.4624099958        4.2020381172
 H       -14.2681022738        7.5365015450        5.5894506168
 H       -12.6173189418        4.7679567532        7.6930281674
 H       -14.2966981532        5.0953790719        7.4830709219
 H       -13.0896766983        6.3935618836        7.7033486582
 H       -13.5893656242        2.6061303711       -0.9298615030
 H       -12.6577598913        4.1104998672       -0.4618068842
 H       -14.3958685296        3.9525095211        0.0043831404
 H       -14.7092087300        1.3735372722        1.1340668942
 H       -13.4603197528        0.3673814267        1.8035340882
 H       -13.4444858232        0.6939165966       -0.0091409255
 H        -5.9022927322       -1.9444487972        1.2551051975
 H        -7.6051751421       -2.0266905123        1.5943494746
 H        -6.4996165147       -1.0196107028        2.6577571931
 H        -5.0671641714        0.5121326481        0.3225683601
 H        -5.6721149968        1.0743505269        1.9143018707
 H        -6.1671765303        1.8474179514        0.3754464488
 H       -11.4773622723       -0.5369302713       -5.0478092955
 H       -10.8741168957        0.9147647715       -5.7929414116
 H       -11.1706051613        0.9058960106       -4.0189279517
 H        -9.4717315105       -0.9624053969       -6.6941485809
 H        -9.6819176521       -2.2478170793       -5.5344846904
 H        -8.0513370082       -1.5836151108       -5.6791585087
 H        -8.2371230618        5.1469637604       -9.7048330542
 H        -6.5012407792        4.9172444263       -9.4844397403
 H        -7.2560327486        6.5170580242       -9.3059129527
 H        -5.1781415302        5.1716895748       -7.5505063479
 H        -5.9142110576        4.8808081829       -5.8668460437
 H        -5.9869229957        6.4536967838       -6.5888158173
 Na      -11.0366709952        5.3918242478        2.7312762962
