117

 C        -9.8670364828        6.7842454732       -7.5419512103
 C        -8.5443215361        6.4044155246       -6.8087413796
 O        -8.3463996704        6.8332365491       -5.7028445944
 C        -7.5148491826        5.4320500867       -7.4678482345
 C        -8.1835032829        3.9402215387       -7.3696493274
 O        -9.1895780991        3.5301695054       -7.9495001959
 C        -7.5630542644        2.9608342130       -6.3797738673
 C        -8.1940642660        1.5573767373       -6.2864352188
 C        -8.5858315269        1.1177951172       -4.8259165548
 O        -8.3964008824        1.7603810428       -3.8022474364
 C        -9.3468618744       -0.3090457467       -4.7580797044
 C        -9.3096213512       -0.8194564224       -3.2789423322
 O       -10.1924507443       -0.6033731370       -2.5162369055
 C        -8.0283967475       -1.6096569425       -2.8398908346
 C        -7.8959600570       -1.9217690287       -1.3768722371
 C        -7.0575693361       -0.7600834865       -0.8123194896
 O        -6.2844056028       -0.1847619970       -1.5412505080
 C        -7.0043647601       -0.3021442758        0.6922626066
 C        -8.3013867084        0.3632309428        1.1630768797
 O        -8.7663439778        0.1190947720        2.2544005485
 C        -9.0847847875        1.4022204996        0.2582502095
 C       -10.6381085467        1.3824080860        0.5612917232
 C       -11.2880936470        2.7540606491        0.9567504342
 O       -10.6069499548        3.7348678791        1.2120851990
 C       -12.9123139682        2.6221106599        1.0346844528
 C       -13.3028762791        3.3486648699        2.3603677579
 O       -13.3302752385        4.5853871168        2.3989131693
 C       -13.5023269190        2.4603394380        3.5715150702
 C       -13.8691067090        3.2771974517        4.8351406485
 C       -12.7728827182        4.3670321252        5.1360193419
 O       -11.6151656033        4.1091519633        4.8508001911
 C       -13.1450166533        5.7897124728        5.6810033475
 C       -11.8243333302        6.6395938831        5.3488174554
 O       -11.7257627080        7.2880215434        4.2981034459
 C       -10.7192745775        6.5575763997        6.4017516362
 C        -9.4561725387        7.2775247723        5.8735810960
 C        -9.0353117345        6.7747658378        4.5151016342
 O        -9.0667662776        5.5957278623        4.3086068907
 C        -8.2367038968        7.7633073467        3.5210307429
 C        -9.1584290715        8.0965308063        2.2789180462
 O        -9.9936328692        7.3076432261        1.9493471594
 C        -8.8482717706        9.3761391895        1.4871218275
 C        -7.7767027600        9.0925382741        4.2539170509
 C        -7.0469781479        7.0131847444        2.8700580610
 C       -14.4006092578        6.4068521066        5.0039109145
 C       -13.4712787053        5.6404084656        7.2457282007
 C       -13.3977115380        3.6028338730       -0.1149410764
 C       -13.5738902859        1.1600502811        0.7792797440
 C        -6.7393256224       -1.5586906600        1.5192728085
 C        -5.9352040718        0.7483749417        0.9084356827
 C       -10.8472277062       -0.1126871559       -5.0303199073
 C        -8.8102053489       -1.3535326261       -5.7349442870
 C        -7.2733507320        5.8389388200       -8.9621111431
 C        -6.1047046847        5.5248237124       -6.7524125742
 H       -10.5812898368        5.8961081168       -7.6191294285
 H        -9.5599401179        7.1789675859       -8.5494583137
 H       -10.3783492323        7.5177642651       -7.0340026765
 H        -7.4508913963        3.3094687477       -5.3823101617
 H        -6.4599510322        2.8934754588       -6.6458081061
 H        -7.4996664184        0.7549430948       -6.5371913322
 H        -9.0770150234        1.5277611865       -6.9008458724
 H        -7.1396549127       -1.1439677118       -3.2101670294
 H        -8.1046119532       -2.5239298092       -3.4222541756
 H        -7.3060319510       -2.8064908378       -1.2753279838
 H        -8.9404184173       -2.0438055123       -0.9223869081
 H        -8.8191372845        1.2553949836       -0.8438607320
 H        -8.7876687602        2.4469872081        0.4837374109
 H       -10.6512877108        0.7517762069        1.4356000759
 H       -11.1243554112        1.0208039512       -0.3006798265
 H       -12.5096631074        2.0269314320        3.6536940106
 H       -14.2288619067        1.6495443946        3.4657783640
 H       -13.9980287149        2.7102781594        5.7059501122
 H       -14.8816782688        3.8808246084        4.7069163114
 H       -10.4612813470        5.5281781395        6.6281683954
 H       -11.1632038398        6.9088001196        7.3251680002
 H        -8.5684090910        7.0144412540        6.4569585875
 H        -9.5996923599        8.3493440313        5.8751489311
 H        -9.7890838688        9.8186766583        1.1917203905
 H        -8.2687271170        9.1098565808        0.6029607908
 H        -8.4733843945       10.2232773432        2.0471591666
 H        -8.6133742008        9.7236759169        4.4200337188
 H        -7.2009346539        9.7275630597        3.6075279412
 H        -7.2762047751        8.8627834703        5.2458599357
 H        -7.5041886228        6.3128889670        2.1125642571
 H        -6.5619782720        6.5813213665        3.6600785779
 H        -6.3593295678        7.6006431701        2.2767979061
 H       -15.2915611688        5.7318243623        5.0700510602
 H       -14.2593615780        6.7277698976        3.9565457192
 H       -14.7222388533        7.2920288670        5.5056036327
 H       -12.6179294059        5.2236333500        7.8122953510
 H       -14.3353269488        4.9109790561        7.4077250198
 H       -13.7635467848        6.5909124754        7.7189292696
 H       -12.8585395146        3.5539830311       -1.0290714169
 H       -13.4029730966        4.5564547629        0.3064907935
 H       -14.3868388723        3.2138255966       -0.3775565822
 H       -14.5899971198        1.1774598896        1.0714011671
 H       -13.0584091227        0.3718823868        1.2968485917
 H       -13.5222750719        0.8517005375       -0.2649634190
 H        -5.7781375493       -1.8813957794        1.2134518363
 H        -7.4659844657       -2.3249641803        1.2981481261
 H        -6.6297996189       -1.3516545311        2.6042011715
 H        -4.9835592107        0.3059942260        0.9711990150
 H        -6.2374607901        1.1657851246        1.8088816762
 H        -5.9350295972        1.5276433679        0.0753337384
 H       -11.4102895176       -1.0489218352       -4.9136534927
 H       -10.9939432015        0.2349691587       -6.0529567246
 H       -11.2309379510        0.5925137323       -4.3476237868
 H        -8.8705964228       -1.1545871728       -6.8198246675
 H        -9.3728472692       -2.2684732706       -5.5886850493
 H        -7.7606953748       -1.5588150650       -5.4287348796
 H        -8.2054452470        5.8824786630       -9.5081373003
 H        -6.4350710414        5.2566420121       -9.3947604836
 H        -7.0035603593        6.9194087865       -9.0645910831
 H        -5.5938278839        4.6304106563       -6.8045786142
 H        -6.3624993845        5.7352456480       -5.7082705248
 H        -5.4326993005        6.2927737201       -7.2115784101
 Na      -10.8807238582        5.3420670906        2.6922634026
