117

 C        -9.8936679120        6.8109224624       -7.5170275064
 C        -8.6781709937        6.5341984675       -6.6909325394
 O        -8.5739735316        6.9290159266       -5.5528776933
 C        -7.5869131886        5.4563548680       -7.3246264832
 C        -8.2613026021        4.0323607304       -7.1074782892
 O        -9.2190983275        3.7538473571       -7.8218100508
 C        -7.8219920682        3.0844057580       -6.0315417412
 C        -8.5261559650        1.7414974230       -6.2564267956
 C        -8.8556699818        1.1183726447       -4.9364093745
 O        -8.6558110947        1.7902334156       -3.9398915474
 C        -9.3528071322       -0.3789103788       -4.8911657386
 C        -9.1443855702       -0.7666343838       -3.2925454027
 O        -9.9311991165       -0.2915657574       -2.5256258714
 C        -7.9653435860       -1.6349971499       -2.9045714642
 C        -7.7170793795       -1.6973006892       -1.3771815285
 C        -6.8269330492       -0.5420876342       -0.8741847759
 O        -6.0725225509        0.1384814889       -1.5516213396
 C        -6.9495887250       -0.3222260052        0.6753420317
 C        -8.2833573230        0.2706128166        1.0347820519
 O        -8.7871118414       -0.1314952416        2.0711399477
 C        -8.9737608062        1.3878209198        0.1408531725
 C       -10.5973648779        1.3329793230        0.3418527662
 C       -11.2220522827        2.5765467511        1.0195037795
 O       -10.5244703312        3.5665955704        1.2479693867
 C       -12.7704920980        2.6916765735        1.0151516035
 C       -13.2326327602        3.2778677928        2.3171988254
 O       -13.3094142762        4.4999109056        2.3683101733
 C       -13.2794619798        2.3601293344        3.5136905090
 C       -13.7543265977        3.1173357642        4.7796855838
 C       -12.8279105331        4.3109395160        5.0243921921
 O       -11.6094164913        4.0915272266        4.8627361121
 C       -13.2038782754        5.6617723386        5.5508171525
 C       -11.8724449162        6.4997471090        5.3741863294
 O       -11.6969031424        7.2035709404        4.3797495932
 C       -10.8024701595        6.6068447257        6.4100655620
 C        -9.5872113108        7.3605980655        5.8390001405
 C        -9.0546791759        6.7700956988        4.5219351878
 O        -9.1064132741        5.5985076673        4.3737887468
 C        -8.2530376811        7.7097300957        3.5622035649
 C        -9.1977218595        7.9950166923        2.3488856054
 O       -10.0205990419        7.2039137573        1.9923135180
 C        -9.0798376018        9.3581371677        1.6528286865
 C        -7.6776717254        8.9634125738        4.1864806006
 C        -7.0639346453        6.8970823702        2.9504818216
 C       -14.2140536148        6.3405940892        4.6350234324
 C       -13.6364163522        5.5876336843        7.0757090095
 C       -13.1050449275        3.7379482256       -0.1051957491
 C       -13.5242089959        1.4025172344        0.7110462043
 C        -6.7598879260       -1.6642145949        1.3799612993
 C        -5.8097292199        0.6278073916        1.2239931858
 C       -10.8151781561       -0.3415575906       -5.2814369771
 C        -8.5334027325       -1.2653625123       -5.8455421102
 C        -7.4255757188        5.6193971775       -8.7963320367
 C        -6.2141478956        5.7407552109       -6.5685915850
 H       -10.5369590180        5.9496035507       -7.3294010122
 H        -9.6664439235        6.9164524925       -8.5829159454
 H       -10.3889006242        7.6785749967       -7.2561218722
 H        -7.9960347150        3.6037424144       -5.0854228226
 H        -6.7349767872        2.8946674763       -6.0350425960
 H        -7.8271900814        1.0703549836       -6.8337113967
 H        -9.3997175013        1.9978106256       -6.8541171685
 H        -7.0756040942       -1.3797414204       -3.4854274996
 H        -8.2574942798       -2.6369677987       -3.3253719972
 H        -7.2683937098       -2.6626853828       -1.2335031062
 H        -8.6362200290       -1.5703912493       -0.8552203275
 H        -8.7761233075        1.2555141688       -0.9180536601
 H        -8.5963061120        2.2977463865        0.3882756770
 H       -10.7821973462        0.3766359840        0.9555806965
 H       -10.9552592176        1.2424176596       -0.6702327276
 H       -12.1810241127        2.1003650283        3.6134906854
 H       -13.7800694393        1.3751075548        3.4020781610
 H       -13.7035959674        2.5109496835        5.6799000900
 H       -14.8745204862        3.4484128204        4.9051878826
 H       -10.5745802017        5.5151461792        6.6922340170
 H       -11.0696296244        7.1071396628        7.3564117050
 H        -8.7813349939        7.2455481496        6.6174672799
 H        -9.8867342389        8.4202720047        5.7471242797
 H        -9.7050906637       10.1297594340        2.1799169909
 H        -9.5036031896        9.2809760785        0.6433714022
 H        -8.1450697809        9.8751614683        1.7219946856
 H        -8.4208525795        9.6377207307        4.5577069723
 H        -6.8876606265        9.4488341386        3.5397341097
 H        -7.0640619340        8.5857662640        5.0742470062
 H        -7.4916896428        6.0121935868        2.4242107569
 H        -6.3737644874        6.6920775375        3.7552460657
 H        -6.5967034755        7.4490632384        2.1555513376
 H       -15.1880764725        5.8831610148        4.6298659956
 H       -13.8751281644        6.4610059140        3.5759627073
 H       -14.3670725783        7.3132151224        4.9757588123
 H       -13.0597629092        4.8839459577        7.6145008537
 H       -14.6511110646        5.1085416010        7.0319434539
 H       -13.8037756021        6.4329309365        7.6605264208
 H       -12.8478202253        3.2707251529       -1.0573865968
 H       -12.5023725551        4.6519234726        0.0718732715
 H       -14.2211950170        3.7708004420       -0.1348170824
 H       -14.4918093048        1.6157715809        0.2655726075
 H       -13.5120025548        0.6911704038        1.5423087086
 H       -13.0173241890        0.8262637060       -0.1106003346
 H        -5.7767962638       -2.1252538644        1.2287918018
 H        -7.5910909955       -2.2630203617        1.0127297505
 H        -6.9245632905       -1.5505762031        2.4503635941
 H        -4.8710945470        0.3520474879        0.6921497656
 H        -5.6401775926        0.5168241343        2.3261389577
 H        -6.0942057503        1.7835246247        1.0706054676
 H       -11.3374374885       -1.2875489532       -5.0022973294
 H       -11.0357929121       -0.1151561793       -6.3462387819
 H       -11.2340569945        0.4229484664       -4.6772969761
 H        -8.6507295280       -1.0698624543       -6.9410875741
 H        -8.8661471224       -2.3153441307       -5.7281747184
 H        -7.4515861503       -1.2015277856       -5.7017787429
 H        -8.3151986308        5.2293813557       -9.1660828331
 H        -6.4979356723        5.1968172326       -9.1479466458
 H        -7.3593028186        6.6517332737       -9.1588479937
 H        -5.3702710909        5.5498098459       -7.1731199061
 H        -6.1529635880        5.1361165189       -5.6799063885
 H        -6.1217366072        6.8688779094       -6.3959768946
 Na      -11.0461344687        5.3666078511        2.8698716366
