117

 C        -5.1028893371       -6.3329925943        2.6534741461
 C        -6.0929752359       -5.1526668733        3.1374975035
 O        -6.0212296027       -4.1135978005        2.5351871421
 C        -7.2042021449       -5.4640170400        4.2573530884
 C        -7.4285645520       -4.1442201942        5.2897438425
 O        -7.3072930841       -4.1045661270        6.5080698215
 C        -7.8578285972       -2.7788976152        4.5375566669
 C        -7.7834905501       -1.5189990058        5.3148289892
 C        -8.3773508593       -0.3553314062        4.5560450926
 O        -8.5600297672       -0.4843378051        3.3305467980
 C        -8.6762701362        1.0742540694        5.2876620958
 C        -8.6426171609        2.1795305744        4.1887181196
 O        -7.6807919906        2.9143993412        4.1474747620
 C        -9.7410715073        2.4887729057        3.2152795163
 C        -9.0631027310        2.4505177858        1.8144487854
 C        -9.8940961010        3.0836769213        0.6910590494
 O        -9.7250692025        4.2303471655        0.2810835411
 C       -10.9827036945        2.2367335235       -0.0124601290
 C       -12.4160449831        2.7358579509        0.5160195935
 O       -12.5735848817        3.2763514462        1.5918546960
 C       -13.6556362661        2.4728229543       -0.3870601040
 C       -14.2831098902        3.7721018808       -0.9837066952
 C       -13.2346684319        4.9035827259       -1.1951495750
 O       -12.1681811802        4.8383177762       -0.6447489483
 C       -13.8085542819        6.1243168738       -2.0422591719
 C       -12.8882226252        6.3057222000       -3.4078653256
 O       -11.7124251345        6.1148640138       -3.2715370785
 C       -13.5237108095        6.5451590243       -4.7725773181
 C       -12.5225287780        7.1684113306       -5.7859986697
 C       -12.0390265163        8.4642213680       -5.0844158465
 O       -12.5821478210        8.9604724755       -4.1468736466
 C       -10.7153498138        9.2577140267       -5.5794409231
 C        -9.7027584794        9.2249103298       -4.4168502061
 O        -8.8390148175        8.3510159863       -4.3193992398
 C        -9.6865229535       10.4222781320       -3.3392920660
 C        -8.5018225558       10.1185269277       -2.4330264935
 C        -8.5772753245        8.7628903094       -1.7260298182
 O        -9.6863986710        8.2195655508       -1.4754536273
 C        -7.2896096099        7.9412082740       -1.3170116306
 C        -7.3735422463        6.7744590590       -2.4243880361
 O        -8.4076777424        6.1157134312       -2.3969585453
 C        -6.4520049019        6.8243897036       -3.6268007957
 C        -5.9514448313        8.8083957165       -1.3572591765
 C        -7.4512514288        7.3406498007        0.0527197312
 C        -9.9867001703        8.5577918520       -6.7810740466
 C       -11.0788925835       10.7133081246       -6.0032164153
 C       -15.3101692129        6.1696084212       -2.2794540588
 C       -13.5054329743        7.5006265489       -1.2917484313
 C       -10.7178700674        2.4294405810       -1.5702640481
 C       -10.9325444787        0.7617969937        0.3762016616
 C       -10.1521306040        0.8281673055        5.7930634085
 C        -7.6338115986        1.3443382558        6.3350683361
 C        -8.6305729035       -5.6592596180        3.5355594992
 C        -6.7623381098       -6.7234766308        5.0466926764
 H        -5.7943975466       -6.9960928160        2.1324777399
 H        -4.6150913751       -6.8446376362        3.4596743906
 H        -4.3694835431       -6.0725288755        1.8286192998
 H        -8.8755657545       -2.8686564078        4.2540812622
 H        -7.3121252316       -2.7670388800        3.6040426535
 H        -6.7138153741       -1.1967944837        5.5199320318
 H        -8.1377275530       -1.6754063338        6.2790713056
 H        -9.9101802123        3.5582484486        3.4173290452
 H       -10.6543512181        1.9958630778        3.1936009354
 H        -8.7588785385        1.4141522376        1.4782463236
 H        -8.0780361942        2.9898139785        1.8603370839
 H       -14.3430349630        1.8375289899        0.2297515360
 H       -13.2623452672        1.9981986864       -1.3121383641
 H       -14.8708430989        4.2560961404       -0.1019670374
 H       -14.8801984635        3.5386525710       -1.8991858167
 H       -14.3666287926        7.2529808507       -4.5772336168
 H       -13.9884367695        5.6662988493       -5.2550498276
 H       -12.9932891947        7.5737929987       -6.6427576463
 H       -11.7427278746        6.5528919842       -6.1721523663
 H       -10.7331504999       10.4103228145       -2.8900908479
 H        -9.5783773883       11.3572837319       -3.7728730330
 H        -8.3809221367       10.9187703866       -1.6813334553
 H        -7.6787895332       10.2344861813       -3.0866692538
 H        -6.6627574563        7.7168165303       -4.0747377567
 H        -6.6721463645        5.9846425999       -4.3085192268
 H        -5.4017262059        6.6018534075       -3.2719613725
 H        -5.9278617606        9.3285501400       -0.4121020550
 H        -5.8086002137        9.5183166933       -2.1914366770
 H        -5.0485516731        8.2071865137       -1.4835492124
 H        -7.3373243340        8.0921503602        0.8482240587
 H        -7.0483954079        6.4027460008        0.3857015196
 H        -8.5730854267        7.3733029687        0.0818447846
 H        -9.1127276690        9.1912586057       -7.1141396145
 H       -10.7601935667        8.6372470721       -7.5616187947
 H        -9.6219043053        7.5449613220       -6.6505762282
 H       -10.1131488361       11.2428611501       -6.3243915439
 H       -11.4215464737       11.2425101510       -5.1939767087
 H       -11.7629579915       10.8417773326       -6.7819505069
 H       -15.8389296584        6.2376830412       -1.3747862268
 H       -15.5650638316        5.2685703393       -2.8133855519
 H       -15.4710384687        6.8955155031       -2.9542259838
 H       -13.9837225526        7.5964887865       -0.3238727630
 H       -13.8919227593        8.2946582208       -1.8618751429
 H       -12.4847334373        7.6826851922       -1.2349223945
 H       -11.6843641103        2.1594130864       -2.1038176954
 H        -9.8567616067        1.8591890381       -1.9446754973
 H       -10.6041592869        3.5324698573       -1.7395631766
 H       -11.1289786071        0.5122330439        1.4275459304
 H        -9.9699504766        0.2414284100        0.1684413211
 H       -11.5406324311        0.1369037629       -0.2940899559
 H       -10.1707172213        0.7577258172        6.9050111167
 H       -10.5862027164       -0.0641280921        5.3524773961
 H       -10.7706146869        1.6807641253        5.5301749059
 H        -7.0689768554        0.4475219115        6.7033772106
 H        -7.9891842838        1.8199196735        7.2364388109
 H        -6.8249561935        2.0248987995        5.9295966918
 H        -8.7937115155       -4.8877631348        2.7833083795
 H        -9.4655799799       -5.5832451143        4.1704021824
 H        -8.7115329405       -6.6884417675        3.1691064145
 H        -5.6862784960       -6.6759437601        5.3497106663
 H        -6.8756752264       -7.5897714875        4.3860107274
 H        -7.3484067226       -6.7737532186        5.9817901659
 Na      -10.2952360896        6.0476690865       -1.4054761070
