117

 C        -9.5963255186        6.0555485241       -7.4517967384
 C        -8.2284317001        5.8636001609       -6.8748535434
 O        -8.0182093543        6.3444798281       -5.7796553180
 C        -7.1912857603        4.9261064725       -7.6058800213
 C        -7.8452839785        3.4622977640       -7.3598794670
 O        -8.6724175150        3.0107084756       -8.1090744958
 C        -7.4048067492        2.6602459977       -6.1387163613
 C        -8.0875145676        1.3240091918       -6.1539222533
 C        -8.4649143494        0.9435546966       -4.7502855678
 O        -7.9440746199        1.4637174605       -3.7974861185
 C        -9.6852610898       -0.0838323876       -4.5596823652
 C        -9.7231256109       -0.4650318034       -3.0262608900
 O       -10.5877100885        0.0195415078       -2.2787946991
 C        -8.6415115050       -1.4588375152       -2.5979970693
 C        -8.0223216513       -1.5663161205       -1.2000826349
 C        -7.0271262935       -0.4078026869       -0.7961410851
 O        -6.1981575312       -0.0225891121       -1.5781589063
 C        -7.1286695140        0.0173877594        0.7488319225
 C        -8.6223993555        0.2511428802        1.0890183294
 O        -9.2831560823       -0.5189770000        1.7668094891
 C        -9.1770080223        1.5397647494        0.5228276591
 C       -10.7241738547        1.4334103654        0.3945284064
 C       -11.4397095995        2.6181648886        1.1058910955
 O       -10.8085707479        3.4969256743        1.6489410386
 C       -12.9806125523        2.6254072428        1.1098479049
 C       -13.4814135279        3.4849237993        2.2861198236
 O       -13.3498544406        4.7076543989        2.2901012552
 C       -13.9742246085        2.7220021397        3.5285298245
 C       -14.2733497279        3.6631851964        4.7229427703
 C       -12.9034078129        4.4522328994        5.0496301277
 O       -11.8141638030        4.0577413122        4.6344636807
 C       -12.9411096651        5.7986022132        5.9699721905
 C       -11.7108292181        6.6154932926        5.4069721193
 O       -11.7235473378        7.0542982825        4.2567250691
 C       -10.4817314256        6.7493527101        6.2688722365
 C        -9.4073362787        7.6487932021        5.6446071111
 C        -8.9540589401        7.0441900127        4.2897375820
 O        -8.9522349559        5.8620243772        4.0450871154
 C        -8.0679610118        7.9171637105        3.3173429898
 C        -8.9667850472        8.2174844011        2.0560867913
 O        -9.8860294630        7.4327979045        1.7683626452
 C        -8.6225502751        9.4475296541        1.1747369391
 C        -7.8088462374        9.2402104793        3.9346741178
 C        -6.7867322604        7.2112399404        2.8150397579
 C       -14.2381730142        6.6172813818        5.7400099329
 C       -12.7239537431        5.2893932064        7.4434689116
 C       -13.2530437648        3.2939088524       -0.2537199611
 C       -13.6339491608        1.1650090506        1.2150259325
 C        -6.7199192205       -1.2141853073        1.5050531854
 C        -6.2147936303        1.2362199614        0.9273880191
 C       -10.9713040780        0.7354250049       -4.9115412775
 C        -9.6639779927       -1.3201461288       -5.5612119241
 C        -7.1755551916        5.0349924793       -9.1454543886
 C        -5.7238053109        5.0771437124       -7.1101679603
 H       -10.1603954723        5.1844507202       -7.5750189209
 H        -9.4048664099        6.4415879685       -8.4352455410
 H       -10.1640457688        6.8450167977       -6.7978783252
 H        -7.6502181593        3.2442869599       -5.2843263712
 H        -6.2689277276        2.5678547264       -6.2192428401
 H        -7.6078320059        0.4606491752       -6.6794407376
 H        -8.9675208323        1.4672355067       -6.8094514310
 H        -7.8549358594       -1.1563951433       -3.2985088549
 H        -9.0053592648       -2.4532997465       -2.9557187655
 H        -7.5762245088       -2.5526371966       -1.0424849097
 H        -8.8107312548       -1.5520128314       -0.3780537665
 H        -8.6264881699        1.8473644679       -0.4368367395
 H        -8.9913436364        2.3860001625        1.1965161332
 H       -10.8850306855        0.4625450111        0.9573768125
 H       -11.0577441463        1.4057888874       -0.6194812282
 H       -13.1329209782        2.0459990023        3.7377152992
 H       -14.8718948484        2.1541035313        3.4022995279
 H       -14.5869285305        3.1112144378        5.5970884691
 H       -14.8775834066        4.5022071522        4.3620088649
 H       -10.0169187998        5.7618289850        6.3948729597
 H       -10.7860436543        7.0176581890        7.2664421116
 H        -8.5677141044        7.6839266500        6.3450619973
 H        -9.6503074799        8.6809737861        5.5294137449
 H        -8.3272505400        9.1886416677        0.0938083239
 H        -7.7851791396       10.0146509584        1.6199773485
 H        -9.3827556378       10.2161049279        1.2239420428
 H        -8.6786041940        9.7180929183        4.2428266404
 H        -7.1674007257        9.8364920000        3.2809950476
 H        -7.1629228188        9.1839838806        4.7693671130
 H        -7.0425676208        6.1973554736        2.6161742813
 H        -6.0378157287        7.0931993837        3.7103131568
 H        -6.3017550663        7.8087833882        2.0475517842
 H       -15.0471498539        5.9739024262        6.0394139254
 H       -14.4145796237        6.7578967850        4.6432550045
 H       -14.2618438133        7.5212258553        6.2883019370
 H       -11.8361611431        4.7009744542        7.5238715003
 H       -13.6351423378        4.7879899087        7.8243035814
 H       -12.5542891794        6.1669531863        7.9931301180
 H       -12.3850048128        3.1532386326       -0.8567872151
 H       -13.3306867331        4.4319895434       -0.0989467180
 H       -14.2480321792        2.9664920734       -0.6334297494
 H       -14.7235498526        1.3206974468        1.3391109184
 H       -13.3133081327        0.5594910525        2.0819962760
 H       -13.5212806590        0.6837429699        0.2163574854
 H        -5.7168898932       -1.5850691306        1.2154972573
 H        -7.4623885366       -1.9876433455        1.2956525285
 H        -6.8420476144       -1.0861352897        2.5708509976
 H        -5.2343231252        0.8370852430        0.9087829374
 H        -6.4067532978        1.7409332506        1.8755521123
 H        -6.3999245812        1.8138959556        0.0899135108
 H       -11.8963735540        0.1308495270       -4.8062268902
 H       -10.9051996259        1.1837241472       -5.9171896757
 H       -11.0499580282        1.5376203159       -4.2265035175
 H        -9.9737506821       -0.9208026303       -6.5449215227
 H       -10.4267077426       -1.9738746864       -5.1108392992
 H        -8.7308556697       -1.8619693917       -5.6129586740
 H        -8.0665981636        4.6343479644       -9.4671539572
 H        -6.5137239774        4.3954089718       -9.7300565066
 H        -7.0476795765        6.0610177876       -9.5078310866
 H        -5.2252200455        4.1318874626       -6.9709491538
 H        -5.7514867425        5.5729795301       -6.1438113268
 H        -5.1250829365        5.7741077704       -7.7773040183
 Na      -11.0269158025        5.4292907686        2.7584816967
