117

 C        -9.6177038782        6.0430485576       -7.5258224965
 C        -8.1838194571        5.7814457012       -6.9222147159
 O        -7.7873737441        6.1755881452       -5.8330037028
 C        -7.2034010378        4.8180803574       -7.6575216487
 C        -7.7133275083        3.4002992534       -7.4189508331
 O        -8.6075462173        3.0258417218       -8.1329085175
 C        -7.3889650176        2.5856325216       -6.1585614736
 C        -8.0356200712        1.1832858170       -6.1578244720
 C        -8.4938350743        0.8420951399       -4.7411663709
 O        -8.0384420600        1.4565314592       -3.7974067156
 C        -9.7884337812       -0.0513126854       -4.5039289155
 C        -9.7039626800       -0.4581626097       -3.0410768693
 O       -10.5361856920        0.0011692852       -2.2412444444
 C        -8.6004235123       -1.4883631848       -2.6196754623
 C        -8.1431193877       -1.5477690224       -1.1960550720
 C        -7.0886459214       -0.4932126137       -0.7864258573
 O        -6.2602662766       -0.0341947139       -1.4922135739
 C        -7.1036214180       -0.0414509453        0.7234716907
 C        -8.5411476867        0.3161756329        1.0410356412
 O        -9.2848518045       -0.4902602320        1.5727100897
 C        -9.2266445148        1.6180559891        0.6480694407
 C       -10.7332703999        1.4470435004        0.4946623580
 C       -11.4952713941        2.5331115555        1.2277545171
 O       -10.8482486917        3.4787225333        1.6483992769
 C       -13.0319532213        2.6607056613        1.0856117377
 C       -13.5025105785        3.5167605774        2.3017484447
 O       -13.3978877112        4.7015979534        2.1268327487
 C       -14.0131298308        2.8689238990        3.5747056964
 C       -14.1941388212        3.8017711953        4.7488990413
 C       -12.9169515319        4.5436718301        5.0739017546
 O       -11.8420949189        4.1218776167        4.7184848333
 C       -12.8717223011        5.7644517682        6.0119426379
 C       -11.6982387443        6.6697030971        5.4190840974
 O       -11.7867492669        7.0930298428        4.3209509003
 C       -10.4412805804        6.7756122995        6.2625041556
 C        -9.4028026308        7.6144392963        5.5046620512
 C        -8.8365478811        6.9643286592        4.2817873956
 O        -8.9969125527        5.7856183132        4.0497120178
 C        -8.0749545420        7.9687109786        3.3040954523
 C        -8.9981263816        8.1491807821        1.9942286107
 O        -9.9499764736        7.4484880345        1.6782415456
 C        -8.7204752622        9.3041128666        1.1224083798
 C        -7.7219216656        9.3352299072        3.9434837042
 C        -6.7773945232        7.2915007358        2.8913823698
 C       -14.2134783069        6.5860136620        5.8048590490
 C       -12.6332927402        5.2018086365        7.3979684609
 C       -13.3265683559        3.4382574491       -0.2773895492
 C       -13.5967039950        1.1811422660        1.1441960359
 C        -6.5825181814       -1.2592711327        1.5821047736
 C        -6.2770782539        1.2743061418        0.9533209920
 C       -10.9552191889        0.8698726174       -4.7312759445
 C        -9.7659966857       -1.2193484861       -5.5333970624
 C        -7.1486572646        5.0815626852       -9.2351183735
 C        -5.8081945133        5.0520300853       -7.0402480064
 H       -10.1402653837        5.0656455713       -7.4732364257
 H        -9.5785108496        6.2695115229       -8.6107867104
 H       -10.1547078529        6.7936347169       -6.9431598873
 H        -7.7626551379        3.2623536893       -5.3599064881
 H        -6.3095205863        2.4384814468       -6.0765059492
 H        -7.3401105587        0.4442877315       -6.6034179044
 H        -8.8485766657        1.1277664352       -6.8781824789
 H        -7.7575543871       -1.3030154400       -3.2852214567
 H        -9.0625389637       -2.4500499626       -2.9123595637
 H        -7.5813570749       -2.5415450999       -0.9408784213
 H        -8.9425684861       -1.6045818242       -0.4665218866
 H        -8.8125026128        1.9511252972       -0.3422722498
 H        -9.0446776875        2.5667215078        1.3130086154
 H       -10.8470618634        0.4473895485        0.9422471191
 H       -11.0535814197        1.5113853146       -0.5117315109
 H       -13.3883625748        1.9917905107        3.8061134272
 H       -14.9995463896        2.5209565129        3.4273737256
 H       -14.2487318394        3.1033921817        5.6884928110
 H       -14.9231893994        4.5021358392        4.6386255491
 H       -10.0446707994        5.8105098515        6.5210911278
 H       -10.7024018762        7.2394780928        7.1699532838
 H        -8.6493374486        7.9170709299        6.1996926930
 H        -9.8103117426        8.5358241279        5.1794237108
 H        -8.7444176689        9.0338680175        0.0625861239
 H        -7.7288654019        9.7526844518        1.3643211386
 H        -9.3529157022       10.1928385315        1.4328364244
 H        -8.5653098939       10.0066961499        4.0281979738
 H        -6.9193025125        9.7492626660        3.4225939991
 H        -7.3132007702        9.2366003526        4.8663722983
 H        -6.9323438419        6.2189454874        2.9903555404
 H        -6.1056267161        7.4545247292        3.7773041130
 H        -6.2558361895        7.7091945061        1.9965521374
 H       -15.1121817422        6.1260063645        6.2646005498
 H       -14.4281243947        6.7436890269        4.7600862827
 H       -13.9588347043        7.5755495259        6.3276833578
 H       -11.9118456036        4.4083428430        7.3823399778
 H       -13.5608340929        4.9210080562        7.7491141500
 H       -12.2833873360        6.0189990832        8.0247603994
 H       -12.6489119741        3.2280270971       -1.1138188233
 H       -13.1552500194        4.5196685104       -0.0174888235
 H       -14.3763477100        3.3778436339       -0.3857325253
 H       -14.7217060820        1.0879392672        1.3436282294
 H       -13.0695936862        0.5939311691        1.9490877762
 H       -13.4191714174        0.7774966934        0.1497932799
 H        -5.6631117426       -1.5408892030        1.0080036070
 H        -7.2531268692       -2.1064144355        1.7345614460
 H        -6.3034533796       -0.9670457266        2.5585362726
 H        -5.2691530127        1.0249311748        1.1655994500
 H        -6.7113896666        1.6213173628        1.8222299429
 H        -6.4301506819        1.9141908915        0.1772196305
 H       -11.8918428070        0.3286854627       -4.7526500261
 H       -10.8407120595        1.5024217773       -5.6086153906
 H       -11.0077404231        1.5526982515       -3.8370526735
 H       -10.0221602533       -0.8738112213       -6.5176400365
 H       -10.4388618827       -1.9833097707       -5.1219893705
 H        -8.7573608665       -1.5881672798       -5.5325210390
 H        -8.0939448956        4.6683306125       -9.6591639353
 H        -6.4096538538        4.6487508890       -9.9093036295
 H        -7.0965069659        6.1311130041       -9.4031901661
 H        -5.1578766376        4.0987836752       -7.0712777543
 H        -5.9733164347        5.2277082858       -5.9919938900
 H        -5.2903665501        5.8732287776       -7.4318019225
 Na      -11.0322786092        5.4284633046        2.7228422704
