117

 C        -9.2733269715        5.6005124987       -7.5821384461
 C        -7.8667685848        5.3513205887       -7.0513222017
 O        -7.6352082945        5.6313632712       -5.8909788093
 C        -6.8517231670        4.4001288311       -7.8026004889
 C        -7.5092929539        2.9383632693       -7.6874143400
 O        -8.3992137582        2.6403909168       -8.4480849057
 C        -7.0694473543        2.1390307639       -6.4581669327
 C        -8.0657345972        1.0096979959       -6.0464868555
 C        -8.6556731582        1.1593721118       -4.5881217226
 O        -8.2205374243        1.9681231755       -3.7896591402
 C        -9.8828814411        0.2315153383       -4.2027900967
 C        -9.5616853676       -0.5070026687       -2.7938939307
 O       -10.1847398020       -0.1411334410       -1.8079741421
 C        -8.4929341414       -1.6471946463       -2.7521754954
 C        -8.0348963902       -1.7630802297       -1.3215278581
 C        -7.1157006046       -0.6228781586       -0.9410805197
 O        -6.2688578890       -0.1296405372       -1.6795142565
 C        -7.2189512855       -0.2266576031        0.5926726239
 C        -8.7393279876        0.0914335086        1.0217074575
 O        -9.2426856136       -0.6894412416        1.8126150397
 C        -9.3339412402        1.4615086396        0.5914959374
 C       -10.8664430833        1.4808866846        1.0747232516
 C       -11.5142094090        2.8323741535        1.3509298911
 O       -10.7766860741        3.7935853419        1.5065369687
 C       -13.0745157231        3.0811676793        1.0004185696
 C       -13.5829329804        3.9569762835        2.2529806426
 O       -13.4347279192        5.1721348763        2.3320998268
 C       -14.3116844307        3.2980323594        3.5039638436
 C       -14.2984694078        4.2588989105        4.6798196154
 C       -12.9023526320        4.6612056821        5.2060192266
 O       -11.8861688952        4.1967447829        4.7207994813
 C       -12.6854967321        5.7603977716        6.3228516304
 C       -11.6928831047        6.8101039743        5.6627335616
 O       -11.9850928232        7.3355891523        4.6464019123
 C       -10.3013483695        7.0476469680        6.3354788847
 C        -9.4214448395        7.8758066360        5.4233442805
 C        -9.0900759955        7.1089623152        4.1043374057
 O        -9.2519877644        5.9276586119        4.0010356035
 C        -8.2244292068        7.8641822809        3.0407614760
 C        -9.1750464285        7.9230927232        1.6719878843
 O       -10.2614007010        7.3788807224        1.6489905905
 C        -8.6249425908        8.8666295440        0.6264677558
 C        -7.9307915472        9.3552658851        3.3796750029
 C        -6.9348768602        7.0368647464        2.6589461127
 C       -13.9264219918        6.6667746206        6.5931439819
 C       -12.2399338456        5.0477910884        7.5912132619
 C       -13.2642761187        3.8609223049       -0.2914580802
 C       -13.7402194033        1.7010494497        1.0515229899
 C        -6.6963640715       -1.4131995038        1.3709468139
 C        -6.4017973394        1.0901083226        0.7918285430
 C       -11.0853993986        1.1955759550       -3.9785797127
 C       -10.2831463203       -0.8921488069       -5.2788664240
 C        -6.8251105736        4.8077687618       -9.3198958725
 C        -5.4334554195        4.4374905817       -7.2245864378
 H        -9.4911961387        4.8487768360       -8.3640114951
 H        -9.3621234389        6.6318706966       -7.9605962847
 H        -9.9196577042        5.6163794491       -6.7780950000
 H        -6.8674298304        2.8262042017       -5.6834686400
 H        -6.1290116927        1.6168007534       -6.8273927988
 H        -7.4986401050        0.0755422920       -6.1490337326
 H        -8.8520240108        0.9999280254       -6.7831644094
 H        -7.6556215327       -1.2888000805       -3.3341556993
 H        -8.8005316362       -2.6337492674       -3.1276438737
 H        -7.3949852804       -2.6249298518       -1.3173066867
 H        -8.7155548348       -1.8727914401       -0.5222327565
 H        -9.2679270641        1.5162977197       -0.4506382718
 H        -8.8728773495        2.2780385604        1.0298302818
 H       -10.8784100252        0.7397771433        1.9446404541
 H       -11.4841273647        0.9796028614        0.3713802835
 H       -13.9959572310        2.2281653889        3.7691516630
 H       -15.3766710299        3.1112915437        3.2762272947
 H       -14.7821203109        3.7660100680        5.5775876127
 H       -14.8502692325        5.0876339303        4.5676505387
 H        -9.7134265469        6.0752292548        6.4294921937
 H       -10.4310441509        7.5860344346        7.2941737294
 H        -8.4751063523        8.1087769243        5.9985565326
 H        -9.8860070615        8.8400963283        5.1356584799
 H        -9.4016617966        9.0118133073       -0.0917955600
 H        -7.7119465038        8.5831577980        0.1423592329
 H        -8.4102267956        9.8569871437        1.0758450697
 H        -8.8188588627       10.1076743286        3.3472795074
 H        -7.2295104353        9.8865961569        2.7216424493
 H        -7.5338324645        9.3151674406        4.4041996047
 H        -7.2118794090        6.0323960164        2.4573929444
 H        -6.1729703961        7.1474972470        3.4046427845
 H        -6.6102094136        7.3896552064        1.7151884025
 H       -14.6908208321        5.9841377675        6.9412701849
 H       -14.1192685147        7.1830292428        5.6814243727
 H       -13.7938263825        7.4637795831        7.3890947688
 H       -11.4542808765        4.2853048726        7.3743156137
 H       -13.0797650183        4.5580861447        8.0643470194
 H       -11.9255123490        5.9054496549        8.2287441839
 H       -12.8172961108        3.3928651303       -1.1608355972
 H       -12.8460997473        4.8604065052       -0.1182301431
 H       -14.2682539773        3.8761663127       -0.6234339554
 H       -14.8003045249        1.8660239337        0.8546871557
 H       -13.5135789543        1.1253157720        1.9394470757
 H       -13.3827906479        1.1063193665        0.2572326663
 H        -5.6841293550       -1.8271110148        1.1685977208
 H        -7.4000666032       -2.2190641673        1.1953048919
 H        -6.6966688011       -1.1515062978        2.3805778107
 H        -5.2952212287        0.9312136796        0.5285408004
 H        -6.6007646853        1.5712747548        1.7773361250
 H        -6.7796374398        1.7851536938       -0.0387580022
 H       -11.9523304778        0.5787686506       -3.7528274909
 H       -11.3385333744        1.7587100470       -4.8729815999
 H       -10.9140769963        1.8504892791       -3.1060443610
 H       -10.6123284630       -0.3679097443       -6.1660208118
 H       -11.1889889500       -1.2928224212       -4.8153171091
 H        -9.4904551291       -1.5995693775       -5.3595005486
 H        -7.7479535383        4.5549558249       -9.8897212650
 H        -5.8736394646        4.4719334307       -9.7755486122
 H        -6.8692200554        5.8876245263       -9.5148191389
 H        -4.8020755753        3.4908522238       -7.2614621659
 H        -5.4605178181        4.8233996372       -6.2322140240
 H        -4.8598454610        5.1207671160       -7.7929831326
 Na      -11.1281547498        5.6018104603        2.7200796254
