117

 C        -9.4551582489        5.9823184357       -7.5409905863
 C        -8.0964952932        5.6397302269       -6.9416759152
 O        -7.8403201613        6.1536453595       -5.8709038951
 C        -7.1684977577        4.7370826367       -7.6937946932
 C        -7.7752507115        3.3401440135       -7.5358488327
 O        -8.6623661523        2.9009798817       -8.2586528938
 C        -7.2756675283        2.5377312627       -6.2382017729
 C        -7.9387397540        1.1415061438       -6.1253077141
 C        -8.5689842820        0.9564151461       -4.7334783719
 O        -8.0697458703        1.4167231667       -3.7190584993
 C        -9.8093691921        0.0535064117       -4.4702528319
 C        -9.7033354012       -0.5094650946       -2.9917777239
 O       -10.3808440798       -0.1235570401       -2.1157456420
 C        -8.5288579123       -1.5476858767       -2.7140571609
 C        -8.2646237174       -1.5355894687       -1.2254945712
 C        -7.1376282664       -0.5188184637       -0.7669535327
 O        -6.3254756882       -0.0767082483       -1.5675304639
 C        -7.1039405388        0.0083559453        0.8007887693
 C        -8.6081436111        0.2224919149        1.0842482042
 O        -9.3459034305       -0.6575092894        1.5280435990
 C        -9.2141436869        1.6034820020        0.6617929167
 C       -10.7110013062        1.5130633838        0.5466459296
 C       -11.4136356858        2.6673996199        1.1047247080
 O       -10.8041654895        3.5182305479        1.7345640404
 C       -13.0697857271        2.6850696664        1.0654196817
 C       -13.5760108939        3.6042630033        2.2797435675
 O       -13.4671714849        4.8096754389        2.1802362498
 C       -14.1276717050        2.9148544676        3.5405902495
 C       -14.2137892612        3.8555928090        4.7503259000
 C       -12.8277127427        4.4850684755        5.0604271582
 O       -11.7791480598        4.0603125132        4.6646053583
 C       -12.8378576587        5.8085894807        6.0448059422
 C       -11.7023041518        6.6550884732        5.4740954938
 O       -11.8669397045        7.2220629040        4.3867354803
 C       -10.4092935783        6.8189989123        6.3117694846
 C        -9.4154048807        7.6869147491        5.5227735001
 C        -8.8083939372        7.0066890731        4.2825219970
 O        -8.9816885945        5.8109565244        3.9936279066
 C        -8.0835966748        7.9154884576        3.3032554451
 C        -9.0725874726        8.0851578869        1.9367314208
 O        -9.9572837489        7.3280091163        1.7241407330
 C        -8.7502699233        9.2850902195        0.9861939923
 C        -7.7378477223        9.3547583480        3.8925878432
 C        -6.6948668454        7.2539973974        2.8622813382
 C       -14.1974666109        6.6474192636        5.9852743996
 C       -12.6287229317        5.2370796647        7.4369398190
 C       -13.4379469580        3.3753342562       -0.1970816145
 C       -13.6726131201        1.1818011258        0.9736692227
 C        -6.4941149448       -1.1622521665        1.6445017477
 C        -6.1948617377        1.2784114903        0.9562275432
 C       -11.0337431487        1.0225281487       -4.6172914850
 C        -9.8731134171       -1.1982684591       -5.4916877422
 C        -7.1121740322        5.1650363848       -9.2194674712
 C        -5.7011160727        4.9524101392       -7.0688669344
 H       -10.0793020698        5.0243606648       -7.4484624101
 H        -9.5062586902        6.2659815270       -8.6123689657
 H        -9.8148170741        6.7140869761       -6.9183278805
 H        -7.6461216274        3.2118679741       -5.3994487257
 H        -6.2260990206        2.4156568930       -6.2285314539
 H        -7.1872799069        0.3912454711       -6.2688590830
 H        -8.6066145341        0.9150868811       -6.9529865336
 H        -7.6648336169       -1.3367451409       -3.3505360508
 H        -8.9540325364       -2.4928122856       -3.0035434680
 H        -7.8089007918       -2.4733830096       -0.8089168612
 H        -9.1686835425       -1.4588327031       -0.6646273158
 H        -8.8319407680        2.0003659791       -0.2588657937
 H        -8.9487203486        2.4136109938        1.4117587363
 H       -10.9218920508        0.7091824782        1.2141388124
 H       -11.0604183280        1.2784337243       -0.4899225352
 H       -13.4931381992        2.0566072361        3.7479924239
 H       -15.1498148586        2.5070112711        3.3770699051
 H       -14.3937497484        3.3026908447        5.6737566706
 H       -14.8528909140        4.7791061017        4.6338360278
 H        -9.9510405079        5.8596578123        6.5042950938
 H       -10.6864433867        7.2946754003        7.2695407156
 H        -8.6357303795        8.0157723222        6.1951204855
 H        -9.8945229939        8.6188794947        5.1902718395
 H        -9.1757664369        8.9975912875        0.0653109153
 H        -7.6805396411        9.4710109474        0.8000775211
 H        -9.0309060024       10.2885703354        1.4044764949
 H        -8.5675560374       10.0432333993        3.8144147429
 H        -6.8769605245        9.7451144063        3.4416350978
 H        -7.4350754172        9.3146576729        4.9843959965
 H        -6.7158821499        6.1334341206        2.8017446790
 H        -6.0234036185        7.4427665363        3.6081444770
 H        -6.3364000306        7.8377345928        1.9924056010
 H       -15.0402641951        6.1506040850        6.5482816185
 H       -14.5537792855        6.9387265509        4.9970030838
 H       -13.8588069719        7.5358120077        6.5621596238
 H       -11.8846384702        4.4588765056        7.2949079241
 H       -13.5810955399        4.8405734560        7.7198163739
 H       -12.3259700960        5.9720613066        8.2121966682
 H       -13.0795124064        2.8509691710       -1.1145211729
 H       -12.8899766504        4.2583332702       -0.1976961119
 H       -14.4696960658        3.6444184349       -0.1300506295
 H       -14.7714918073        1.1470342005        0.9708948205
 H       -13.2984619674        0.6304408546        1.8534965995
 H       -13.3488022967        0.7209931865        0.0363516548
 H        -5.6906717021       -1.5219825964        1.0589660714
 H        -7.1617832665       -1.9512120758        1.9803479186
 H        -6.0381319654       -0.7707233488        2.5757319572
 H        -5.2119147117        0.9126857864        1.0196275805
 H        -6.4773331604        1.6635004951        1.8864327237
 H        -6.4182344919        2.0348365870        0.1096462143
 H       -11.9133383082        0.3974090074       -4.5959735439
 H       -11.0192318299        1.6603009141       -5.4951982974
 H       -11.1204234633        1.6771995082       -3.7139191294
 H       -10.0073945697       -0.8668377164       -6.4961513911
 H       -10.6551853801       -1.8346459268       -5.1132858315
 H        -8.8715022522       -1.6589739555       -5.4221012870
 H        -8.0027734035        4.7641451923       -9.8158644043
 H        -6.2593612538        4.7827251385       -9.7943637438
 H        -6.9731704423        6.2407025180       -9.3510886058
 H        -4.8999102803        4.3552143613       -7.4971113049
 H        -5.7953734277        4.6140210138       -6.0243061197
 H        -5.4040520849        5.9760373832       -7.0659514031
 Na      -11.0329561920        5.5140738047        2.6984034838
