117

 C       -14.2153988081        3.0981744306       -1.9079652441
 C       -13.0946335354        2.6260016635       -1.0316663249
 O       -12.0536964383        2.2717384989       -1.5139882672
 C       -13.1992177584        3.2026991281        0.4410433234
 C       -12.0704873641        2.5123322636        1.1722642680
 O       -10.8940635339        2.5412908221        0.8529218444
 C       -12.2197936638        1.8786119114        2.5286017532
 C       -10.9557908349        1.0890156862        2.9021461039
 C       -11.4481221954       -0.4412523319        3.1827228781
 O       -12.4610312511       -0.6211457389        3.8071070795
 C       -10.4256909002       -1.6415265958        2.8767234912
 C       -10.1694668879       -1.5963179189        1.1915528082
 O        -9.7235251763       -0.5910177004        0.6669898324
 C       -10.4362631138       -2.9395786108        0.4708872024
 C        -9.6674634495       -2.9228696250       -0.8277800934
 C       -10.1482674008       -1.8937308564       -1.9452190774
 O       -11.0476129792       -1.1280260703       -1.7062326684
 C        -9.8586212442       -2.2509846791       -3.4805548389
 C        -8.6954767829       -1.3149506851       -3.9243142517
 O        -8.0350375127       -0.9779471334       -2.9675430364
 C        -8.4993872630       -0.3907502637       -5.1789253923
 C        -7.4918337080        0.7906252601       -4.6999225273
 C        -8.0081597309        1.5438196240       -3.4227914375
 O        -9.1466923517        1.3914738587       -3.0298510280
 C        -6.9331366320        2.3228058353       -2.5635827183
 C        -7.6729676442        3.6579853376       -2.0419461576
 O        -8.8295780935        3.6762233156       -1.8260029817
 C        -6.6896619539        4.8147947248       -1.6790569014
 C        -7.2498322495        6.0578844022       -0.9754163837
 C        -6.4588713767        6.5357572119        0.2321320228
 O        -5.2613055304        6.1944231965        0.1238833972
 C        -7.3433248874        7.3065905001        1.3651241006
 C        -8.2832330462        8.3365385678        0.6307646549
 O        -9.2267004040        7.8731321828        0.0060788354
 C        -7.9779233255        9.8715756755        0.8179127143
 C        -9.2554466604       10.7146374172        0.4017026903
 C       -10.0110504215       11.2488934400        1.6914563058
 O        -9.6114238027       11.3434623395        2.8144309141
 C       -11.3242828009       12.0211832682        1.2927039585
 C       -12.2926511700       11.1030353084        0.4701287847
 O       -12.5744486524       11.2455358432       -0.6940916585
 C       -12.8590121796        9.9057352720        1.1851216655
 C       -12.1580196695       12.5056833124        2.5286040550
 C       -10.9228850999       13.2052410137        0.3842472439
 C        -8.2740040618        6.2360180420        2.0396262496
 C        -6.3901872313        7.9426573054        2.4743813774
 C        -6.7066513420        1.4905407353       -1.2037122841
 C        -5.5912608420        2.5013758502       -3.1939796462
 C        -9.5389841458       -3.7780337217       -3.5634101760
 C       -11.1282292413       -1.9320670690       -4.3007530915
 C        -8.9159704925       -1.2257652004        3.4843250239
 C       -11.0479148187       -2.8339325318        3.4724871179
 C       -13.0897283867        4.8064001435        0.5244052642
 C       -14.5744218396        2.8215121820        0.8833934037
 H       -14.1607227563        4.1686706486       -1.8587930960
 H       -15.2234565109        2.6847302483       -1.6795551849
 H       -14.0081725926        2.5863211225       -2.8340225903
 H       -13.1611279065        1.2010302534        2.5442578188
 H       -12.3998647166        2.6525977950        3.3639075156
 H       -10.6165854227        1.5192891327        3.8722050252
 H       -10.0628787036        1.2559615825        2.3277729726
 H       -11.5178286974       -3.0819990573        0.3355155201
 H       -10.0275397400       -3.8783730858        0.9941223448
 H        -9.6774770147       -3.9067529135       -1.2541767995
 H        -8.6731757590       -2.7147048578       -0.4265501450
 H        -9.5750593027        0.0078801533       -5.2396683659
 H        -8.2226470236       -0.8556949235       -6.1606912287
 H        -7.2169464898        1.1748083583       -5.7669249944
 H        -6.4874705927        0.3929891561       -4.3401795348
 H        -6.4062023458        5.3664726955       -2.5938933622
 H        -5.9374596694        4.4539563005       -1.0900712519
 H        -8.3133121665        5.9416786129       -0.7070152834
 H        -7.2457200900        6.9414331086       -1.6493122868
 H        -7.1232326182       10.1516209079        0.2378731790
 H        -7.8809462499        9.8508240359        1.9400622515
 H        -9.9571910053       10.0487618217       -0.1683514933
 H        -8.9529073219       11.5130059378       -0.2103233813
 H       -13.1019488783        9.1019705412        0.4324707601
 H       -13.7719367410       10.0170129897        1.6463242146
 H       -12.2374292612        9.4531905428        1.9904148842
 H       -13.1919947447       12.8184318971        2.1057314019
 H       -11.7553229551       13.3119131823        3.2929361977
 H       -12.3423923574       11.7050177771        3.3025324962
 H       -11.8020996643       13.8032687415        0.3667551185
 H       -10.5884963687       12.9587624219       -0.7013610284
 H       -10.0703399425       13.8475476643        0.9124612256
 H        -8.8228082208        6.9289526339        2.6305493264
 H        -7.8382989777        5.6859703096        2.8493831458
 H        -8.9364732058        5.6413296204        1.5289771021
 H        -6.9483278854        8.6531137004        3.2074453230
 H        -5.6219559967        8.4539221751        1.8617497768
 H        -5.7757933500        7.2483453462        3.0701527003
 H        -6.7323279426        0.3484491593       -1.4738765349
 H        -7.3245707242        1.7558824639       -0.3327211358
 H        -5.6503663961        1.6138114221       -0.8221256156
 H        -5.0416192030        3.2068961272       -2.5486083859
 H        -5.7054241206        2.9214653231       -4.2230823375
 H        -4.9853880138        1.5925662479       -3.2580328317
 H        -8.5025505056       -3.8705518998       -3.2346491122
 H        -9.4986363265       -4.0101712369       -4.7175521263
 H       -10.4285771224       -4.3796914527       -3.2455792023
 H       -11.0531188844       -2.0953657766       -5.3993208841
 H       -11.1322754839       -0.8623374870       -4.3640629236
 H       -12.1064275926       -2.2933406332       -3.9758102104
 H        -8.3660814126       -0.4873139815        2.9266222046
 H        -8.3341196599       -2.1235359921        3.6654436177
 H        -9.0072394530       -0.6366357316        4.3051421533
 H       -11.3262205716       -2.5354204819        4.4851028409
 H       -10.3932757873       -3.6250926543        3.3138385485
 H       -11.9936794546       -3.1406528664        2.9179576105
 H       -14.0074140981        5.0752088361        0.9518469316
 H       -13.0254074445        5.2938554484       -0.4676776270
 H       -12.2517489892        5.0775232233        1.2187161299
 H       -14.6073399472        2.8927101904        1.9877594986
 H       -14.7027468424        1.7786674333        0.6796382544
 H       -15.3377234728        3.4612524387        0.4137897426
 Na      -10.0668138695        1.0946005930       -1.1026730493
