117

 C        -9.6217579654        6.1083798791       -7.5506741582
 C        -8.2753842128        5.9658683030       -6.8217495755
 O        -8.0389837857        6.4332624304       -5.7375076879
 C        -7.2815894018        4.9331081825       -7.5838619234
 C        -7.8262057169        3.5472044889       -7.3605685811
 O        -8.7288970997        3.1423143144       -8.0892383946
 C        -7.3489207710        2.7036562364       -6.1610253530
 C        -8.1221702493        1.4069946492       -6.1093784385
 C        -8.5008026544        0.9558430261       -4.7222261288
 O        -7.9316144674        1.3681876933       -3.7271911330
 C        -9.6932215344       -0.0481595673       -4.5587726276
 C        -9.6925114323       -0.4732558567       -3.0640857744
 O       -10.5096740979       -0.0778202248       -2.3134315441
 C        -8.5455230627       -1.4667940182       -2.7206735861
 C        -8.0946905646       -1.5135927781       -1.2889821449
 C        -7.1045301225       -0.4276780419       -0.8304525942
 O        -6.2196569023       -0.0008664917       -1.5769450523
 C        -7.1186983388       -0.0742772296        0.6692985759
 C        -8.6342983236        0.2847235567        1.0993724438
 O        -9.2155206293       -0.4519878732        1.8831939245
 C        -9.2201572167        1.4959962651        0.3983735298
 C       -10.7741632101        1.4563361012        0.4151341692
 C       -11.3404828343        2.6311836762        1.1248098667
 O       -10.6327662792        3.4959219976        1.5924077327
 C       -13.0106436280        2.5968216281        1.0611427722
 C       -13.3979643105        3.4238833204        2.3253945205
 O       -13.3591905984        4.6623090421        2.4212132454
 C       -13.9244893614        2.6541955648        3.5609580451
 C       -14.2216412844        3.6724660255        4.7213758881
 C       -12.9075083749        4.4154087439        5.0304899477
 O       -11.8791249595        3.9242813750        4.6098136283
 C       -13.0041177721        5.7161523876        5.8555539807
 C       -11.7331838522        6.5456049751        5.4128515048
 O       -11.7600622845        7.0917826347        4.2894158235
 C       -10.4693412346        6.6828584279        6.3196941423
 C        -9.3516313815        7.5621481314        5.6806302862
 C        -8.7813632910        7.0252492614        4.3777259527
 O        -9.0662714632        5.8737309101        4.0950381537
 C        -8.0611741639        8.0067998303        3.3484895004
 C        -8.9805956333        8.2055992561        2.0640296601
 O        -9.8609591686        7.4751687396        1.7071206236
 C        -8.6487783801        9.4039732390        1.1500140237
 C        -7.6853617066        9.3975691445        4.0910330898
 C        -6.8793350592        7.1586129244        2.7912593515
 C       -14.2131883658        6.5659100155        5.7135850500
 C       -12.9065136568        5.4387514511        7.3868445352
 C       -13.3710161864        3.2052579386       -0.3027893391
 C       -13.6242490839        1.1671673036        1.1132380928
 C        -6.6463171494       -1.2828937594        1.5758457186
 C        -6.1390506687        1.1673007202        0.9447504289
 C       -11.0375888916        0.6400833585       -5.0323814839
 C        -9.4960376577       -1.3256323380       -5.4286492119
 C        -7.2756210487        5.1517258345       -9.1109171540
 C        -5.7836269840        5.0911723706       -7.1115330092
 H        -9.9785124814        5.0978953090       -7.8168118471
 H        -9.4611484228        6.6047872938       -8.5058479695
 H       -10.3402012036        6.5762134778       -6.9451730619
 H        -7.4335891189        3.3103803320       -5.2575327391
 H        -6.2734042941        2.5186963790       -6.3278587589
 H        -7.5869780609        0.5219337256       -6.4622199859
 H        -8.9288247635        1.4842555722       -6.8832106247
 H        -7.7006176202       -1.3503009194       -3.4196287613
 H        -8.9771539054       -2.4584612262       -2.9155563376
 H        -7.6409590625       -2.4545936878       -1.1372756192
 H        -8.9116157142       -1.5452656123       -0.5383512067
 H        -8.8517097747        1.5550879030       -0.6103342638
 H        -8.8872350441        2.3913602699        0.8245633396
 H       -11.0782852324        0.4785498488        0.8169408601
 H       -11.0994834203        1.6614039513       -0.6614187049
 H       -13.1869301349        1.9061572267        3.8553874620
 H       -14.9352158076        2.1830282230        3.4055130647
 H       -14.4482488948        3.1673870905        5.5721085457
 H       -14.9475039937        4.4997309086        4.3657543340
 H       -10.0805000827        5.6759804026        6.5854097716
 H       -10.7651684811        7.1056238331        7.3396126759
 H        -8.6393540753        7.7981303093        6.4993781624
 H        -9.7257025271        8.5942605199        5.4092017320
 H        -8.4691320358        9.0210140874        0.1476780063
 H        -7.8583643751       10.1145800232        1.4515930534
 H        -9.5560763395       10.0216423868        1.1018309496
 H        -8.5424273274        9.9628621802        4.4300636133
 H        -6.9206029408        9.9860888040        3.5827022858
 H        -7.1133262699        9.1247884154        5.0664636586
 H        -7.2999839668        6.2693807286        2.2708086592
 H        -6.2625378981        6.7528582001        3.5187487680
 H        -6.3127401469        7.8507586527        2.1890638284
 H       -15.0452863167        5.9114759845        5.9100545865
 H       -14.3580146179        6.8871679992        4.6947220609
 H       -14.2299710745        7.3325052506        6.4135645245
 H       -11.9097287601        5.0768668816        7.6640644720
 H       -13.7109434803        4.7144086942        7.6863513335
 H       -13.0183263396        6.4049270500        7.8825541182
 H       -12.4671963832        2.9375705833       -0.8694203276
 H       -13.4868526231        4.2686068924       -0.3347539809
 H       -14.3195388272        2.7562064296       -0.7032256520
 H       -14.6794704507        1.2943865937        1.0917769879
 H       -13.4531801391        0.7157698398        2.0684051821
 H       -13.3420344740        0.5573827358        0.2517267510
 H        -5.6282322131       -1.5578586998        1.5460320064
 H        -7.2493915951       -2.1557212823        1.3217712636
 H        -7.0574082919       -1.0516366946        2.5955760747
 H        -5.1581057603        0.7857716731        0.6964663013
 H        -6.1922380264        1.4782514248        1.9999888102
 H        -6.4708439193        1.9800425181        0.1469338151
 H       -11.8625865161       -0.0169168954       -4.7513713894
 H       -11.0184024534        0.7493100972       -6.1143014603
 H       -11.2062891978        1.6084738713       -4.6157622472
 H        -9.5098524906       -0.9702575160       -6.4768694664
 H       -10.2909168128       -2.0253569090       -5.1780935468
 H        -8.5325464999       -1.8492718979       -5.1744260554
 H        -8.1640247494        4.8683017090       -9.6429927084
 H        -6.6590234300        4.3973065201       -9.5584746682
 H        -6.8972325714        6.1483495654       -9.3718076954
 H        -5.2599297519        4.1920079338       -7.0206420229
 H        -5.7459639105        5.6448568972       -6.1380767331
 H        -5.2896916003        5.8130967460       -7.8172625651
 Na      -10.9795950105        5.4992990215        2.7667620333
