117

 C        -8.6410388494        5.6015618226       -7.8801692273
 C        -7.4426815122        4.9910317343       -7.1189446764
 O        -7.1460528892        5.2439257276       -5.9679626736
 C        -6.6412850975        3.8614801736       -7.8709406284
 C        -7.3675514812        2.5300125898       -7.4779955097
 O        -7.9493298540        1.8771116559       -8.3142433396
 C        -7.0725625008        1.9366116011       -6.1068191770
 C        -8.0209712796        0.8227214886       -5.6236123199
 C        -9.0716151422        1.2831948377       -4.6045116052
 O        -9.0056451296        2.4055300859       -4.1297112662
 C       -10.2515230430        0.2861177970       -4.1275975033
 C        -9.8860279845       -0.2880594921       -2.7466613913
 O       -10.3466907988        0.1568067024       -1.7376370497
 C        -8.8100489014       -1.4445144430       -2.7383369304
 C        -8.1649796071       -1.6938464044       -1.3285853092
 C        -7.4370355188       -0.4009270869       -0.8178866155
 O        -7.0172420472        0.4584449924       -1.5308764077
 C        -7.3693532345       -0.2768157001        0.8262427328
 C        -8.7677650945        0.0270430047        1.2013379831
 O        -9.5209930678       -0.9138998366        1.1902094609
 C        -9.3407553991        1.5070400216        1.3721344427
 C       -10.8187331361        1.6707464969        1.0867465328
 C       -11.4380308973        2.9459161496        1.5586127243
 O       -10.7481287321        3.8105717823        2.0238122721
 C       -13.0227293585        3.1723638492        1.0823973121
 C       -13.5983691599        4.0768427772        2.1377178901
 O       -13.3861549901        5.2626086440        2.1512718329
 C       -14.2319125464        3.4867828348        3.3954810392
 C       -14.1512045898        4.4909350810        4.6297948066
 C       -12.7169465670        4.7456227581        5.1381008265
 O       -11.7490797437        4.0446606145        4.7218957728
 C       -12.4247319600        5.7347827104        6.2857149561
 C       -11.6934946229        7.0091039171        5.5623729951
 O       -12.1308922210        7.5307009039        4.5688340783
 C       -10.3263125629        7.4893510598        6.1156876210
 C        -9.5458024000        8.2925532441        5.1065327023
 C        -8.8876907685        7.3453238258        4.0182885609
 O        -9.1384293663        6.1407655406        4.0202996489
 C        -8.1779980800        7.9433965039        2.7972943748
 C        -9.2175973503        8.0680704105        1.5809287461
 O       -10.2901525598        7.4883129047        1.5965497876
 C        -8.8007028302        8.8825680110        0.3209343018
 C        -7.6181913387        9.3962546485        2.9061464485
 C        -7.0806709743        6.9153731763        2.4040935034
 C       -13.7534213638        6.2391787759        6.9089695717
 C       -11.5061056050        5.0270731651        7.3344688662
 C       -12.8876365209        3.8377584203       -0.2938976801
 C       -13.7238202436        1.8544143786        1.0115574868
 C        -6.9170690484       -1.5684236941        1.4550767973
 C        -6.3325978192        0.8057274966        1.1399977799
 C       -11.5188839830        1.2212071806       -4.0245038404
 C       -10.5268799837       -0.8566633205       -5.1686092666
 C        -6.7772945516        4.0191707762       -9.4742849639
 C        -5.1559785735        3.7180834184       -7.2806290847
 H        -9.2205150279        4.8289961187       -8.4193249970
 H        -8.2216916668        6.3208136204       -8.5706113574
 H        -9.3693244437        6.0558080156       -7.1609882003
 H        -6.9043851224        2.6454707977       -5.3154398609
 H        -6.0340968589        1.4727217535       -6.2307762413
 H        -7.3891516894        0.1198527991       -5.0338528872
 H        -8.5244778520        0.3062699089       -6.4486604399
 H        -8.1019652814       -1.3348245656       -3.5618195018
 H        -9.3288307760       -2.3937101937       -2.9927810618
 H        -7.5033440092       -2.6066866785       -1.4561722134
 H        -8.8651172918       -1.8535174889       -0.5647028314
 H        -8.7537048374        2.1377672961        0.7089440847
 H        -9.1447592915        1.7843823381        2.4699856035
 H       -11.4118841120        0.8243793141        1.5539817259
 H       -10.9405058496        1.4236590926        0.0709006701
 H       -13.7585396783        2.5460616375        3.6994409186
 H       -15.2468706849        3.2853421008        3.0990628753
 H       -14.7316096331        4.0832484428        5.4749681982
 H       -14.7265595725        5.3779938351        4.4574377718
 H        -9.7096243252        6.6493887856        6.4374605144
 H       -10.5561710283        7.9975677646        7.0155644333
 H        -8.8270908033        8.9541604288        5.5491381409
 H       -10.2066910790        8.9059474169        4.5614290049
 H        -7.7055543081        8.9313064069        0.2170640699
 H        -9.1894062750        9.9323003327        0.4663387294
 H        -9.2143223851        8.3155887063       -0.5507357978
 H        -8.2665130229       10.1127062004        3.2354578082
 H        -7.1091325104        9.6726423011        2.0409913953
 H        -6.8293185501        9.3425600783        3.6586446438
 H        -7.4629289901        5.8461228102        2.4814285070
 H        -6.3112682089        6.9463224844        3.1310358610
 H        -6.5397672611        7.2740194534        1.4789497672
 H       -14.4713752674        5.4547497220        7.0987857091
 H       -14.2386111331        6.7992708738        6.1587611863
 H       -13.5448327223        6.8847898603        7.7787067904
 H       -10.6702445170        4.6387217474        6.7482682675
 H       -12.0014155572        4.2391946806        7.8260156002
 H       -11.0694421455        5.7179340720        8.0854095634
 H       -12.2430700118        3.0697411475       -0.8641231523
 H       -12.4307950778        4.8084785027       -0.3793589827
 H       -13.8316895077        4.0451176219       -0.7896827109
 H       -14.8179575756        2.0320437702        1.1067862743
 H       -13.4422715434        1.0881784834        1.7499026024
 H       -13.6684576466        1.4569636485        0.0184697813
 H        -6.0883299330       -2.0834599054        0.9589487814
 H        -7.7591164303       -2.2644103582        1.5274134021
 H        -6.6919253236       -1.4749924880        2.4977660114
 H        -5.3386488422        0.5713274742        1.0398432766
 H        -6.3986980539        1.1029912224        2.1821313537
 H        -6.5767135735        1.6814645964        0.5712795670
 H       -12.3048887244        0.6129153041       -3.6604884198
 H       -11.8121787688        1.6644110175       -4.9482024009
 H       -11.3875827353        2.0492812867       -3.2838303980
 H       -10.9092290039       -0.3337263913       -6.0349468185
 H       -11.2576075506       -1.5094027893       -4.6670665303
 H        -9.6006745653       -1.3689617178       -5.4616688646
 H        -7.6311579827        3.4661696061       -9.9669156490
 H        -5.8970988568        3.6919533843      -10.0121557966
 H        -6.7171360066        5.0433220773       -9.7315925863
 H        -4.7407840755        2.6842381958       -7.2980258502
 H        -5.2931468406        3.9645464667       -6.1937042123
 H        -4.5083999651        4.4339907797       -7.7516220591
 Na      -11.2725067887        5.8897427438        3.0144497419
