117

 C        -8.4979439657        5.5922848207       -7.8394227689
 C        -7.3754318407        4.8345459816       -7.1288334500
 O        -7.0053665120        5.1893216822       -6.0476597692
 C        -6.5038539258        3.5828180552       -7.8857516058
 C        -7.3265542030        2.3339807541       -7.4401816977
 O        -8.1147134202        1.6380887639       -8.0636944152
 C        -7.1975249732        2.0609494207       -5.9290511828
 C        -8.0226233856        0.8467694072       -5.5351456013
 C        -9.2181389023        1.3398080283       -4.6805892800
 O        -9.2583422487        2.4505261000       -4.2838364105
 C       -10.3764944874        0.3433971368       -4.2245412193
 C        -9.8322695332       -0.1900881435       -2.7950274460
 O       -10.4129432821        0.1957523264       -1.7906145431
 C        -8.7246271130       -1.3068505964       -2.7454614692
 C        -8.2502030923       -1.6072267584       -1.3216978021
 C        -7.5294432293       -0.4409245187       -0.7442330267
 O        -7.2308823992        0.5347769886       -1.4284003377
 C        -7.4419039532       -0.3394191602        0.8338657554
 C        -8.8378035703        0.0478391105        1.2878050540
 O        -9.6954587795       -0.8266433330        1.2547543521
 C        -9.2532214210        1.4874451007        1.5227134990
 C       -10.8110495872        1.5088138371        1.2443983578
 C       -11.4464819697        2.8417731649        1.5871089668
 O       -10.7647100949        3.8143552747        1.9457544765
 C       -12.9614761227        3.1890603384        1.1447951718
 C       -13.4626849510        4.1038853150        2.2143737232
 O       -13.4377444891        5.3230867593        2.0309597923
 C       -14.1061339203        3.5893799132        3.4534880634
 C       -14.0176899399        4.4985778953        4.6397906656
 C       -12.6221397701        4.6746501306        5.1219415173
 O       -11.7299470771        4.1070204827        4.5975003410
 C       -12.3201654204        5.7232994942        6.2533042929
 C       -11.7295365472        6.9658385429        5.4677376417
 O       -12.3092273966        7.4364935534        4.4889174695
 C       -10.4354455734        7.6700827735        6.0083375979
 C        -9.4682716817        8.3298926578        5.0099598660
 C        -8.8547171035        7.3446647629        4.0119534247
 O        -9.0621314331        6.1591270631        4.1009363421
 C        -8.1234367210        8.0057010134        2.7788360357
 C        -9.2245545939        8.0292902715        1.5150234957
 O       -10.1819936488        7.3032598405        1.4971930858
 C        -8.9516679202        8.9642681227        0.3026014677
 C        -7.5330723802        9.3552494354        3.1827342949
 C        -7.0315003128        7.0936358440        2.2022617044
 C       -13.6587789334        6.2902398915        7.0088639363
 C       -11.4009025428        5.1118590398        7.3350070366
 C       -12.8710364792        3.8564758083       -0.2575632796
 C       -13.7925359521        1.9374085613        1.0764614540
 C        -6.9270705466       -1.6551385029        1.5503628171
 C        -6.3784822304        0.7382792480        1.0913346754
 C       -11.6441175452        1.1092112850       -4.0391617400
 C       -10.5109498159       -0.7407711544       -5.2760163770
 C        -6.5536298356        3.7554425129       -9.4247950346
 C        -5.0424051601        3.7196698359       -7.4326680795
 H        -8.8203540698        5.0504135784       -8.7366826082
 H        -8.0871935861        6.5799077999       -8.1549305726
 H        -9.3063256804        5.6546888733       -7.2108444028
 H        -7.3685586599        2.9757228747       -5.3079109167
 H        -6.1785422836        1.8438882761       -5.7269616132
 H        -7.4310059974        0.1557043641       -4.9573432485
 H        -8.3770759725        0.3486887363       -6.4407159961
 H        -7.9593734619       -0.9602941802       -3.4392375798
 H        -9.0519801910       -2.2423410994       -3.1718939582
 H        -7.6119531489       -2.4287052855       -1.3207027574
 H        -9.1054920905       -1.8250383479       -0.6174159832
 H        -8.6483365222        2.1315996794        0.8968098742
 H        -9.0252590260        1.7728772346        2.5006306151
 H       -11.3042639169        0.6532594513        1.6420684797
 H       -10.8993798983        1.3250309343        0.1068283673
 H       -13.5935990458        2.6588168090        3.7737322979
 H       -15.2088604835        3.4263438733        3.3266688596
 H       -14.6863977735        3.9843325585        5.3893676038
 H       -14.5840257323        5.4384444744        4.4954513854
 H        -9.8520095357        6.9628794251        6.6296166713
 H       -10.7587843198        8.4192488390        6.8052271619
 H        -8.7293975719        8.9491534635        5.5620159580
 H       -10.0226461069        9.0629365542        4.3469063514
 H        -7.8926423684        9.1406135543        0.2093689916
 H        -9.4041243256        9.8979247789        0.5610340496
 H        -9.2582231718        8.4395407656       -0.5952113066
 H        -8.3901419477       10.1147274839        3.4441281739
 H        -6.9129570008        9.8790963419        2.4079218432
 H        -6.9923465571        9.2122911058        4.1274558495
 H        -7.3894073271        6.1037657691        2.1663001235
 H        -6.1959956586        7.0472528741        2.9293176725
 H        -6.6067377017        7.4822603156        1.3273500177
 H       -14.1038678678        5.4563354664        7.5742821330
 H       -14.5040614668        6.5990279769        6.3409598172
 H       -13.3629021157        7.1169101089        7.6721545297
 H       -10.4474892673        4.8315533001        6.9335472629
 H       -11.8643471294        4.2603762725        7.8526009411
 H       -11.2431052927        5.8110143814        8.1128914093
 H       -12.3843604954        3.2938056446       -0.9605679998
 H       -12.2228199685        4.7613350224       -0.2368091823
 H       -13.8206854584        4.2650014037       -0.5457268924
 H       -14.7846271828        1.9858137531        0.6141156988
 H       -13.8371939073        1.5436864626        2.1058084161
 H       -13.2727181298        1.1421336032        0.4837917863
 H        -6.1510558857       -2.2171199151        1.0219364592
 H        -7.7254980933       -2.3378210060        1.7967022139
 H        -6.5365694564       -1.4605741780        2.5549655307
 H        -5.3528741139        0.3641942279        0.7462066294
 H        -6.1518581421        0.9696869948        2.1413660885
 H        -6.5506549526        1.7264476312        0.5206085484
 H       -12.4589589422        0.4476512534       -3.6576142688
 H       -11.9453838019        1.5911457820       -4.9899850555
 H       -11.5205094177        1.9077591637       -3.3531982588
 H       -10.9501745225       -0.3700003781       -6.2158159642
 H       -11.2047705323       -1.4523998066       -4.8359415025
 H        -9.5268278286       -1.1356953573       -5.4258705920
 H        -7.5649847105        3.5301477073       -9.7210323303
 H        -5.8101805910        3.1711705109      -10.0081652876
 H        -6.1632388752        4.7385337215       -9.7915658155
 H        -4.4275542508        2.9757757902       -7.9553288281
 H        -4.9693980226        3.6231805340       -6.3956836754
 H        -4.6759007808        4.6738237830       -7.8081133380
 Na      -11.2856130347        5.9414895920        2.9046604889
