117

 C       -14.2881777494        2.8989086536       -2.0495648571
 C       -13.0249049821        2.8044540287       -1.1611563857
 O       -12.0051550088        2.3091426605       -1.5848732913
 C       -13.2050751330        3.2270085934        0.4779786363
 C       -12.0205857004        2.6362931208        1.2768471008
 O       -10.9040637893        2.6881315139        0.7716486463
 C       -12.3371069492        1.9212842454        2.7005286197
 C       -11.2153620998        1.0204474525        3.0725341593
 C       -11.4681648106       -0.4231544682        3.3651469182
 O       -12.4875369174       -0.7270112917        3.9921821566
 C       -10.6142711866       -1.5696491440        2.7490768928
 C       -10.2573024627       -1.4928212520        1.2532235226
 O        -9.6970445523       -0.5663577986        0.7487759033
 C       -10.4383373965       -2.7358022898        0.4535885120
 C        -9.4585786385       -2.8677641760       -0.8913749650
 C       -10.2678632660       -2.0692227623       -1.8993069966
 O       -10.9397037109       -1.1359677279       -1.4941679899
 C        -9.9627635605       -2.2405777819       -3.5217162084
 C        -8.8120500498       -1.2416419079       -3.7121416139
 O        -7.9358810963       -1.1958647047       -2.8524368944
 C        -8.5073438985       -0.2600335366       -4.9964663543
 C        -7.5563873673        0.7992165841       -4.4985400680
 C        -7.9026443508        1.3517141695       -3.1804681759
 O        -9.0880331477        1.4254445015       -2.9234713155
 C        -6.8791188540        2.2186544449       -2.3054277637
 C        -7.6599018456        3.6409984471       -2.0351625137
 O        -8.8466873081        3.6291083179       -1.8088874879
 C        -6.6567901222        4.8458348460       -2.0039063350
 C        -7.3121603250        6.0338968849       -1.2278999667
 C        -6.3453949003        6.4940832341        0.0854937748
 O        -5.1710022542        6.4007247254        0.2326820842
 C        -7.2873686538        7.2295062299        1.2638098685
 C        -8.2376798519        8.2749074495        0.6500647463
 O        -9.2236855574        7.9819370908       -0.0088853326
 C        -7.9834768458        9.7947908748        0.8302477858
 C        -9.1316926770       10.7939714518        0.3855869744
 C        -9.8996164662       11.3944449459        1.5782507123
 O        -9.4215056615       11.1876048410        2.6985469402
 C       -11.3297081639       12.1103981037        1.1313121148
 C       -12.1628406834       11.0600784617        0.3113114575
 O       -12.6136126518       11.4818020192       -0.7551871506
 C       -12.5923586773        9.7263255780        0.9686364270
 C       -12.1836383784       12.4222360414        2.4221949711
 C       -10.9251779540       13.2953844953        0.2698350797
 C        -8.2323649674        6.0890748192        1.7293925835
 C        -6.5154310363        7.8884472011        2.4518330230
 C        -6.9274110124        1.5951172190       -0.9067835798
 C        -5.5440959000        2.4494236490       -3.0944752736
 C        -9.6321646897       -3.7579970497       -3.7214455722
 C       -11.3238844409       -1.9753128723       -4.2677427723
 C        -9.0721659704       -1.5042433164        3.3776699351
 C       -11.1247184161       -2.9001857920        3.4157928033
 C       -12.9058273543        4.7382058428        0.3413174378
 C       -14.5587547472        2.7177523623        1.1302830255
 H       -14.1112555947        3.6004924859       -2.8693448010
 H       -15.1835703862        3.1896185156       -1.4798580106
 H       -14.5669711771        1.8473823742       -2.2892936232
 H       -13.2899343935        1.4466335834        2.6239186978
 H       -12.4444984597        2.7738945087        3.4688967174
 H       -10.4945025527        1.4983216230        3.6738773369
 H       -10.5839896297        0.9282433360        2.1084846566
 H       -11.4424904663       -2.5803162209        0.0265017413
 H       -10.5340120006       -3.6169098025        0.9757868553
 H        -9.3511077756       -3.8708442402       -1.2353024914
 H        -8.5295118999       -2.4298036593       -0.7115478856
 H        -9.4644138210        0.1555945501       -5.3649050061
 H        -8.0779066628       -0.8530498632       -5.7289543452
 H        -7.4952029164        1.4748508915       -5.2893562900
 H        -6.4937447788        0.4505958924       -4.4615037441
 H        -6.4351827804        5.3932763651       -2.9763998909
 H        -5.7891817774        4.5556499347       -1.3506393752
 H        -8.3411755730        5.8534034142       -0.8681274340
 H        -7.3865699973        6.8888087232       -1.8565030223
 H        -7.2044222360       10.0096347574        0.0689210595
 H        -7.6637968055        9.9153732011        1.8422823017
 H        -9.8274678576       10.3309087354       -0.2833768221
 H        -8.5437497860       11.5447937280       -0.1830229347
 H       -12.7775033186        8.8546025126        0.4020757721
 H       -13.6432044101        9.8272632353        1.5602109644
 H       -11.8951709064        9.4698237119        1.7762047523
 H       -13.2161811518       12.8374174355        2.0877491049
 H       -11.7008703423       13.0668191527        3.2413709760
 H       -12.3580526341       11.4562761495        3.0603719097
 H       -11.7185835181       13.5888328354       -0.3833844989
 H       -10.1071827009       13.0693243511       -0.2953410933
 H       -10.5674287703       14.0999479892        0.9062875592
 H        -8.6762449578        6.4831442794        2.6581636844
 H        -7.9008242656        5.0464340875        2.0236911473
 H        -9.1121935043        6.0415320926        1.1476693230
 H        -7.2618638598        8.2266063801        3.1295118053
 H        -5.7716029611        8.6617130430        2.1826203502
 H        -5.9601441660        7.1467752863        2.9902179350
 H        -6.8031944114        0.5561630018       -1.0136259075
 H        -7.6591417430        1.8944554764       -0.1618128302
 H        -5.9397479908        1.8947328605       -0.4423487386
 H        -4.6435105659        2.6934492836       -2.4466642037
 H        -5.7327349489        3.1552969652       -3.9011048496
 H        -5.2699764125        1.5076331590       -3.6304764341
 H        -8.5825600326       -3.8996837423       -3.3726135249
 H        -9.6778815246       -4.0465107403       -4.8305210149
 H       -10.5187855036       -4.2852209393       -3.3325381650
 H       -11.0893710983       -1.7890594839       -5.3032681950
 H       -11.7997654049       -0.9548370933       -4.0760325755
 H       -12.0584635000       -2.7793507458       -4.2348909900
 H        -8.3611752898       -0.7751406178        3.0032862736
 H        -8.7695457226       -2.5113274874        3.3095255728
 H        -9.0991172934       -1.1335798684        4.4337048589
 H       -11.2562660182       -2.6388960648        4.4745779461
 H       -10.4864141220       -3.7077992506        3.1540253328
 H       -12.1488204097       -3.1334392587        3.0105016117
 H       -13.8582640967        5.2854158800        0.1759292748
 H       -12.2537547067        4.8945923707       -0.5617871712
 H       -12.4579336257        5.0968093334        1.2393424017
 H       -14.5954180149        3.1230839121        2.1373537496
 H       -14.6387697548        1.6200431077        1.1209078533
 H       -15.4025483654        3.2510473870        0.5852818531
 Na      -10.1113883047        1.3056678312       -1.0416732750
