117

 C        -8.5588600413        5.5864901405       -7.8664083971
 C        -7.3740876372        4.9003465349       -7.1688490403
 O        -7.0741679016        5.1984711425       -6.0204305456
 C        -6.6446136376        3.7726556460       -7.8461782740
 C        -7.3368360093        2.4059807922       -7.4388769299
 O        -8.0112288649        1.8182185187       -8.2691172409
 C        -7.0932388719        1.9626458977       -5.9735707640
 C        -8.0057616753        0.8312202890       -5.5171210319
 C        -9.1149400498        1.3155378614       -4.5986280078
 O        -9.2183631332        2.4619391491       -4.1817184436
 C       -10.2481433746        0.2666076738       -4.2057462158
 C        -9.8673980856       -0.2977997276       -2.8001416191
 O       -10.4173965126        0.2452655436       -1.8318680693
 C        -8.7847885282       -1.3484048883       -2.7223231746
 C        -8.2126324822       -1.7029044530       -1.3371392557
 C        -7.4907729620       -0.4176790753       -0.7117287574
 O        -7.1585764780        0.4672246562       -1.4539149646
 C        -7.3194052439       -0.2736934573        0.8264576513
 C        -8.8767893886        0.0321886967        1.1607932803
 O        -9.6599627342       -0.9021934391        1.2127285442
 C        -9.3602452287        1.4776591197        1.4491676586
 C       -10.8346811897        1.6149390751        1.1412310732
 C       -11.4242512389        2.9599102688        1.5374667125
 O       -10.7965658810        3.8795431919        2.0211455166
 C       -12.9401425246        3.1073470646        1.1621342437
 C       -13.5435726489        4.1934827063        2.2367143822
 O       -13.3786186345        5.3813754706        2.0575960240
 C       -14.1783237953        3.5268430255        3.4936057608
 C       -14.0912300736        4.4512517114        4.6854243446
 C       -12.6217608597        4.7168460237        5.1302651329
 O       -11.6797330171        4.0903836011        4.6922014194
 C       -12.3829995609        5.7888552147        6.2271040131
 C       -11.7379752939        6.9805300192        5.5458622338
 O       -12.2466301181        7.4524931931        4.5088463232
 C       -10.4029306941        7.5629400771        6.0943592035
 C        -9.5559501639        8.2803297091        5.0851154865
 C        -8.9680478274        7.3732010939        3.9193430602
 O        -9.0619200579        6.1574868201        4.0731857863
 C        -8.1552270031        7.9596576588        2.7650630177
 C        -9.1904779121        8.0128248647        1.5687018549
 O       -10.2247521560        7.3944827320        1.5815503573
 C        -8.8869291349        8.8851855874        0.3798847820
 C        -7.5700462758        9.3658616250        3.0030452225
 C        -7.0098188827        7.0181526476        2.2560283055
 C       -13.6930401530        6.2421406357        6.9182736572
 C       -11.4885934566        5.0706457062        7.2257968042
 C       -12.8162362697        3.7718215763       -0.2222718546
 C       -13.8127452966        1.8029545663        0.9770898341
 C        -6.8981023601       -1.5805758334        1.5116372276
 C        -6.2078490916        0.8107715220        1.1311448342
 C       -11.4741428908        1.2287979903       -4.0152879428
 C       -10.5457016896       -0.8452660470       -5.2820348120
 C        -6.6519589822        3.8731382377       -9.3903216263
 C        -5.2067229322        3.6507076254       -7.3916600003
 H        -9.0725832693        5.0065187497       -8.6065469548
 H        -8.1750185550        6.4923947655       -8.2937012333
 H        -9.3280088641        5.8052297103       -7.0246126321
 H        -7.3414297052        2.9006913936       -5.3711061315
 H        -6.0596722072        1.8047894194       -5.7367747509
 H        -7.4840690937       -0.0189997352       -5.0631354124
 H        -8.5764876331        0.4813349556       -6.3763511505
 H        -8.0269705389       -1.0042015980       -3.4186557298
 H        -9.1018435736       -2.2969900670       -3.1766604143
 H        -7.4594972937       -2.4230972057       -1.5891431569
 H        -8.8857424028       -2.1311670690       -0.6424862190
 H        -8.7731039836        2.1645164843        0.8775825809
 H        -9.1611137709        1.6309316776        2.4666546348
 H       -11.4620466078        0.8515669651        1.6458706048
 H       -10.9240079515        1.3070954071        0.0898797555
 H       -13.6000412281        2.6284769450        3.6796434558
 H       -15.2639951212        3.2724999151        3.3022894072
 H       -14.7712885430        4.2213151572        5.4229910336
 H       -14.5428169091        5.4622861342        4.2933785880
 H        -9.7817654709        6.7974653217        6.5664925796
 H       -10.6495941151        8.2239607071        6.9542119472
 H        -8.6849929710        8.6474612116        5.6111891461
 H       -10.0565930550        9.1682611962        4.7138615191
 H        -7.7714868711        9.1185529437        0.3951421741
 H        -9.3793854652        9.8115437313        0.6393181410
 H        -9.1321143195        8.3948748459       -0.5306847883
 H        -8.2053598103       10.1091450154        3.4242338973
 H        -7.0106867520        9.8090934715        2.1316477039
 H        -6.8508591835        9.1522417981        3.7697765225
 H        -7.3000979557        5.9991029584        2.2576206090
 H        -6.1272713202        7.0589868581        2.9820755732
 H        -6.5920671904        7.4548739213        1.3651121675
 H       -14.1157623378        5.2857799080        7.2921198646
 H       -14.5111489717        6.5656521511        6.2103263181
 H       -13.5208558433        6.9519059641        7.6860063774
 H       -10.7186710249        4.7173740110        6.6194850969
 H       -11.9461082931        4.2697311856        7.8097213915
 H       -11.0480680633        5.7324756877        7.9067120275
 H       -12.3039556888        3.0863499296       -0.8630357113
 H       -12.2215498788        4.6770689600       -0.2748633697
 H       -13.7714118410        4.1323689421       -0.6005953483
 H       -14.8794330421        2.0848852395        0.8543917409
 H       -13.7416749694        1.1542771357        1.8763365780
 H       -13.6162354515        1.1858536019        0.0472693660
 H        -6.2467325562       -2.2834012102        1.0780079960
 H        -7.8412008723       -2.0656890746        1.7495945192
 H        -6.5835230528       -1.4178082747        2.5707259712
 H        -5.1466142312        0.4622340428        0.8906987077
 H        -6.0779340220        1.0631134567        2.2338681414
 H        -6.3650411121        1.7018277222        0.6126511538
 H       -12.2890720053        0.6569259943       -3.5727058138
 H       -11.8028105715        1.6980793613       -4.9489351994
 H       -11.2511636140        2.0339315214       -3.3359405831
 H       -11.1253960393       -0.3838756364       -6.0797807915
 H       -11.1721685636       -1.5279760837       -4.7388702075
 H        -9.6342976413       -1.2906149308       -5.6996232120
 H        -7.4887122024        3.3518240134       -9.8532606789
 H        -5.7099372382        3.4394978354       -9.8003526117
 H        -6.4674525204        4.8783544558       -9.7993731077
 H        -4.7252626335        2.8035189507       -7.7208864070
 H        -5.2893129876        3.6240002683       -6.2938851035
 H        -4.6480746797        4.5543294927       -7.7422538484
 Na      -11.2882122756        5.9445989696        2.9775757212
