117

 C        -8.0895614684        5.4055388778       -8.1350804595
 C        -6.9495118848        4.6932696839       -7.3702392876
 O        -6.4608951175        5.1493757827       -6.3413984530
 C        -6.3999139319        3.3665415101       -7.9299905813
 C        -7.3153448858        2.3151501272       -7.2026524243
 O        -7.8988512396        1.4682033946       -7.8481228947
 C        -7.3069626830        2.2447745710       -5.7033894679
 C        -8.0373419492        1.0091370319       -5.1173277484
 C        -9.4892943051        1.4656412400       -4.6480989818
 O        -9.7261673423        2.6765342974       -4.7612370487
 C       -10.5444634363        0.3440776349       -4.2198584859
 C       -10.1134016455       -0.1967838670       -2.8163390137
 O       -10.4849810658        0.3550160964       -1.8151071664
 C        -9.1349393759       -1.4125973744       -2.7270398745
 C        -8.4982011346       -1.6848585321       -1.3424131635
 C        -7.7858616440       -0.4078069719       -0.6521981875
 O        -7.3638346144        0.5499872204       -1.2237471030
 C        -7.5243314283       -0.5221360530        0.9227342760
 C        -8.9294942963       -0.1863899316        1.6409578473
 O        -9.4997430299       -1.1430331888        2.1111970319
 C        -9.4182530320        1.2977815111        1.5134827644
 C       -10.9856429651        1.3013460209        1.4075081326
 C       -11.4366666149        2.7773962485        1.4690021312
 O       -10.6212922228        3.6543068467        1.5173225282
 C       -12.8900701830        3.2210340001        1.1896335315
 C       -13.3469733050        4.1608838877        2.3342030191
 O       -13.2188380429        5.3428766549        2.2697874819
 C       -14.1636847444        3.5614240337        3.5826708024
 C       -14.0952280308        4.5591316350        4.7725118310
 C       -12.5907006058        4.7322504672        5.1515173090
 O       -11.7073154681        4.0197864042        4.5896865235
 C       -12.1841233077        5.8385279891        6.2844645994
 C       -11.5276299047        6.9978405130        5.3983682311
 O       -11.9711482818        7.2650660286        4.3151704179
 C       -10.4845617684        7.9249049828        5.9998540662
 C        -9.6464900538        8.6722371689        4.9536801667
 C        -9.1458988097        7.7404289121        3.8487722779
 O        -9.3338088041        6.5456322369        3.9951228795
 C        -8.2114412619        8.1990902314        2.6210909094
 C        -9.1134484309        8.3001918419        1.3950933965
 O        -9.9525061575        7.4172365304        1.1972280021
 C        -8.9677639630        9.4184757755        0.3464237863
 C        -7.4643940332        9.4388212309        3.0313520556
 C        -7.2402613094        7.0508405248        2.4078878546
 C       -13.3897469087        6.4406377138        7.0739385505
 C       -11.1727129582        5.2200127041        7.3035934124
 C       -12.9082333108        4.0957243071       -0.1262139120
 C       -13.9548375179        2.1635072594        1.1011419630
 C        -6.9833878322       -1.8946945160        1.3288781613
 C        -6.5272431231        0.5840085816        1.2826630320
 C       -12.0094765662        0.8886021482       -4.2409881462
 C       -10.4769652783       -0.8286204384       -5.2210958289
 C        -6.5199902965        3.3604706021       -9.4257808769
 C        -4.9493178478        3.2496983831       -7.4279299339
 H        -8.3037891791        4.9900501996       -9.0856900599
 H        -7.7000554355        6.3761231720       -8.3128993387
 H        -9.0100768221        5.4847755425       -7.4689565082
 H        -7.7804673693        3.0826041207       -5.2734343122
 H        -6.2485299077        2.4001948497       -5.3653575027
 H        -7.5739219179        0.5582125459       -4.2444973422
 H        -8.1277885756        0.2292882568       -5.8836242111
 H        -8.3139108431       -1.3975121784       -3.4493534425
 H        -9.7986314662       -2.2087925166       -3.0357562915
 H        -7.7744248168       -2.5258390911       -1.3791663401
 H        -9.1943274683       -1.9222912249       -0.5745942233
 H        -9.0777934088        1.7321876865        0.6295425774
 H        -8.9554790044        2.0006795549        2.2454012195
 H       -11.5221000538        0.6789089640        2.1306016271
 H       -11.2102292632        0.9622480351        0.3935649074
 H       -13.6293906208        2.6593580224        3.9857597648
 H       -15.1658299359        3.4018203347        3.1708446692
 H       -14.7887815226        4.2375052160        5.6489318642
 H       -14.4972891469        5.4497899885        4.3382379653
 H        -9.8375253411        7.3594073670        6.7440145910
 H       -10.9850348465        8.6109107882        6.7190653593
 H        -8.7389910752        9.0953177581        5.4722760361
 H       -10.1865662724        9.5665622739        4.5638693338
 H        -8.0464366431        9.2309929507       -0.1374412045
 H        -9.0470451329       10.3538419105        0.9078735837
 H        -9.7361370121        9.3043038919       -0.4189891240
 H        -8.1058638529       10.3239270996        3.1615911386
 H        -6.7152798927        9.7192456607        2.2232723026
 H        -6.8461202322        9.1849330412        3.9813292780
 H        -7.7500538296        6.0872338128        2.3366343062
 H        -6.7006400986        7.0596855918        3.2932630790
 H        -6.5717257132        7.1103062388        1.5581462966
 H       -13.9461997431        5.7042173543        7.7030057141
 H       -14.0205245532        6.9996997706        6.4044826522
 H       -13.0000610189        7.2184867199        7.8293735035
 H       -10.4355653856        4.6491357509        6.7778945697
 H       -11.6382492370        4.4916094373        7.8641649799
 H       -10.6829720024        5.9096753163        7.9817030761
 H       -12.5041697680        3.6107210674       -1.0551168593
 H       -12.3243815750        4.9533796577       -0.0986816328
 H       -13.9113049161        4.2308125523       -0.3802673025
 H       -14.9653198909        2.6378746561        0.9111057620
 H       -14.0746023618        1.4136754246        1.9322330264
 H       -13.7091752508        1.5635876443        0.2070394190
 H        -6.2196118144       -2.3745913649        0.6873953883
 H        -7.7634787425       -2.6574240563        1.4506321087
 H        -6.4707980838       -1.7477460484        2.2464277929
 H        -5.4561832175        0.5402843954        0.9907637504
 H        -6.5961723126        0.7339743834        2.4486681658
 H        -6.7684473437        1.5651244749        0.8940305696
 H       -12.7748938479        0.1758863303       -3.9862562197
 H       -12.2190003605        1.2124345446       -5.2447566308
 H       -12.1671961873        1.7863965277       -3.5741796543
 H       -10.8761748638       -0.5986521705       -6.1946507866
 H       -11.1187871609       -1.6300446541       -4.8108850714
 H        -9.4829592313       -1.2730074404       -5.2308453958
 H        -7.5973783027        3.0444215540       -9.6710527356
 H        -5.7477125926        2.7103622012       -9.8867205187
 H        -6.4482518138        4.4087886524       -9.8066376167
 H        -4.6172047218        2.2059821537       -7.5229529186
 H        -4.8878694229        3.7053486211       -6.4332649940
 H        -4.3349485682        3.8390472983       -8.0257230228
 Na      -10.9380196016        5.8336121525        2.5590106671
