117

 C       -14.3642860788        2.7320268586       -2.0494046204
 C       -13.1592068624        2.6813090990       -1.1286739396
 O       -12.0958939236        2.4161555861       -1.6913954187
 C       -13.2063227328        3.2035355641        0.3512695972
 C       -12.0295715671        2.6230332686        1.3084507647
 O       -10.8861378220        2.7532110721        0.9318032374
 C       -12.2207309158        2.0047818621        2.6456915582
 C       -11.1056139739        1.0477722204        3.0919983477
 C       -11.5904173707       -0.4490993626        3.4165294741
 O       -12.5040165138       -0.7955489519        4.1365285152
 C       -10.5793239632       -1.6362415370        2.8544898031
 C       -10.2378454041       -1.4872656607        1.2963562615
 O        -9.7653909709       -0.3962313815        0.9596097281
 C       -10.5162313177       -2.7883661829        0.4312185979
 C        -9.5411142124       -2.7786420285       -0.8554885434
 C       -10.3230076027       -2.0450294163       -1.9275382082
 O       -10.9450661018       -1.0324929449       -1.6028246375
 C       -10.1066499248       -2.2687029441       -3.4479504417
 C        -8.7666153615       -1.2840085633       -3.5262618411
 O        -7.8456345108       -1.4650015200       -2.7445629196
 C        -8.6202435017       -0.2876659924       -4.7131481861
 C        -7.5176306118        0.7424986993       -4.4920244385
 C        -7.9207843630        1.4230708371       -3.1512561721
 O        -9.0994917957        1.2792875767       -2.8360083333
 C        -6.9254825494        2.1724294535       -2.1806176677
 C        -7.5163710321        3.6476277022       -1.9918009169
 O        -8.7379675924        3.7671749195       -1.7326849572
 C        -6.6605295272        4.8413192091       -2.1865302511
 C        -7.1590900567        6.1310468417       -1.2322940326
 C        -6.4731894293        6.6166494483       -0.0275819817
 O        -5.3122520006        6.5448679165        0.2017741606
 C        -7.4463429559        7.2345149895        1.1942929975
 C        -8.3128416494        8.3616277586        0.5609850850
 O        -9.2816387881        8.0013822026       -0.0705610943
 C        -7.8504709496        9.9026051449        0.7927244546
 C        -8.9209350102       10.7566564880        0.2567643371
 C        -9.8339063675       11.2816031046        1.4408636357
 O        -9.5001737147       11.2056076634        2.6194155741
 C       -11.1017117885       12.0399371771        1.0610177751
 C       -12.0915820880       11.1280323685        0.2139975541
 O       -12.6594728040       11.4890184716       -0.7900324537
 C       -12.2928963923        9.7311758679        0.6782353341
 C       -11.9862520162       12.3594774760        2.2975585480
 C       -11.0102627125       13.4051392023        0.3276573941
 C        -8.1623407830        5.9045434035        1.5870931612
 C        -6.5406751180        7.6214247654        2.2610018304
 C        -6.8994131582        1.6153899816       -0.7040034421
 C        -5.5740628007        2.2963195995       -2.7971456770
 C        -9.6218485478       -3.6375731436       -3.9166428275
 C       -11.4095208428       -1.8884425840       -4.1898185561
 C        -9.2072306426       -1.5923925613        3.4581387218
 C       -11.2320746770       -3.0267567633        3.1862589099
 C       -12.8875356198        4.7019734905        0.2519249069
 C       -14.5325013523        2.8914777464        1.1100095326
 H       -13.8579020363        2.7059307342       -3.0575477620
 H       -14.8159797426        3.7069281774       -2.0239503100
 H       -15.2223348096        2.1130635010       -1.7521529414
 H       -13.1306291332        1.4810149615        2.6444000626
 H       -12.3490351445        2.8519999466        3.2610293891
 H       -10.6145121306        1.3266948906        4.0343284745
 H       -10.2311230450        1.0217718851        2.3890114633
 H       -11.4991397709       -3.1703683990        0.2532345043
 H       -10.0667382877       -3.5098714568        1.0623487032
 H        -9.1986385935       -3.7631922151       -1.1760356248
 H        -8.7066067882       -2.1942578669       -0.5109215860
 H        -9.5534086235        0.0814968653       -4.9149474411
 H        -8.4283628464       -1.0273149113       -5.4771857910
 H        -7.5274008877        1.4422629724       -5.2925334872
 H        -6.5516193394        0.3916033193       -4.6062701313
 H        -6.8374982770        5.3039964540       -3.1421818619
 H        -5.5678238726        4.6546388051       -1.8073454748
 H        -8.1636347119        6.0083187936       -0.8121594052
 H        -7.2334958061        6.9828749403       -1.8951793374
 H        -6.8357068374       10.0775377130        0.3146170082
 H        -7.8186624095        9.9356891780        1.8640766434
 H        -9.5106011082       10.2118143568       -0.4538672760
 H        -8.3995905936       11.5949248358       -0.3075921631
 H       -12.2932013825        8.9904123709       -0.1264943413
 H       -13.2670669098        9.5129048913        1.1562262504
 H       -11.5293622525        9.4343462506        1.4050190715
 H       -12.8080642776       12.8795487410        1.8174728777
 H       -11.4967025357       13.0270395443        2.9716031510
 H       -12.3449560012       11.5710787441        2.9835423856
 H       -11.7226937721       13.3075490478       -0.4825451824
 H       -10.0670245847       13.4448131703       -0.1165322102
 H       -11.0856504150       14.2071773772        0.8866373343
 H        -8.4293606725        5.6369878677        2.6462781052
 H        -7.6858700877        5.0056416593        1.1889688983
 H        -9.2005968068        5.9682499967        0.9983747071
 H        -7.1823702855        7.7869910476        3.0657244226
 H        -5.8926016387        8.4409492629        2.1697663576
 H        -6.0109885743        6.7437839981        2.5743335798
 H        -6.5000487732        0.6550257590       -0.6464534923
 H        -7.8343799633        1.7385104861       -0.1445014010
 H        -6.2293890216        2.2339746198       -0.1741820606
 H        -4.8502657312        2.3269652432       -1.9945231904
 H        -5.4575851705        3.0331165255       -3.5904548652
 H        -5.3679428695        1.3066706672       -3.2472374536
 H        -8.5775853286       -3.6994534116       -3.5611016584
 H        -9.5969535238       -3.6112462129       -4.9396663165
 H       -10.3450300094       -4.4135300569       -3.7189939336
 H       -11.0800993205       -1.4412076703       -5.1323046887
 H       -12.1854250491       -1.1694196886       -3.8669444443
 H       -11.9040658449       -2.8206438466       -4.4944037168
 H        -8.7422859527       -0.6190457538        3.3245106341
 H        -8.7111414804       -2.3951048528        2.9097197189
 H        -9.0519074768       -1.6768332266        4.5922988768
 H       -11.4057948911       -3.1749204530        4.2545265060
 H       -10.7852691868       -3.9455024147        2.6510702267
 H       -12.1737138828       -2.8746900638        2.7693444222
 H       -13.4903142443        5.2268503335       -0.5745345099
 H       -11.8326455833        4.8034175269        0.0391464459
 H       -13.2042640757        5.1625930857        1.2045457212
 H       -14.5448166614        3.5596890992        1.9946081775
 H       -14.7192774950        1.7829916664        1.3213511244
 H       -15.3267791141        3.3321266919        0.5318337948
 Na      -10.1492811821        1.4650071040       -0.8437575958
