117

 C        -7.8659880029        5.2993991159       -8.2588416148
 C        -6.6736657294        4.6564776729       -7.4820279535
 O        -5.9770543498        5.3060234977       -6.7175358535
 C        -6.2716988064        3.1625863408       -7.8512660964
 C        -7.2309534866        2.2045246265       -6.9575929844
 O        -7.8443250410        1.2780401755       -7.4646222762
 C        -7.3542713878        2.4176728220       -5.4973919506
 C        -8.1960821234        1.2893583986       -4.7826935206
 C        -9.7118600947        1.5591239308       -4.7762731379
 O       -10.1490297385        2.6255970936       -5.1010581595
 C       -10.6201794779        0.3104723093       -4.2249890602
 C       -10.1343526658       -0.1197221423       -2.7681894254
 O       -10.5051359508        0.4040098605       -1.7559730149
 C        -9.3413625595       -1.4319873478       -2.5989354883
 C        -8.9993685509       -1.6435100070       -1.1154643382
 C        -8.0070571150       -0.5597532545       -0.6007775764
 O        -7.5101513953        0.3354363812       -1.2744545531
 C        -7.6918673002       -0.6580159336        0.9061501751
 C        -9.0319711837       -0.2558091155        1.6607986061
 O        -9.6317653299       -0.9100489933        2.5141053889
 C        -9.4762487684        1.1153690826        1.2656346400
 C       -11.0140221271        1.2543627243        1.3413842176
 C       -11.4910404612        2.7018884593        1.4434144096
 O       -10.6474739893        3.5043771308        1.7579479775
 C       -12.9534003450        3.0993476261        1.2084096147
 C       -13.3583373255        4.0708842494        2.3883696574
 O       -13.1037359897        5.2568675942        2.3150836636
 C       -14.1308118766        3.5636048096        3.6151382910
 C       -13.8802884550        4.4362328935        4.8422475186
 C       -12.4038961633        4.8696702624        4.9890332065
 O       -11.4214161154        4.3042572688        4.4191608544
 C       -12.0532412080        6.0314058151        6.0648595022
 C       -11.5362808778        7.2524709410        5.2385474282
 O       -11.9036427642        7.5158523505        4.1224294380
 C       -10.4798540445        8.1758630879        5.9417310259
 C        -9.5686359622        8.7482425636        4.8774374142
 C        -8.9510619832        7.7491218057        3.9164996692
 O        -9.2512385882        6.5810978479        4.0154594165
 C        -8.2413539503        8.3214428068        2.6494421639
 C        -9.2247715711        8.4842777284        1.3899741393
 O       -10.1772312267        7.7597239360        1.1911337385
 C        -8.9637694322        9.6321943208        0.4576987723
 C        -7.4855913132        9.6302180415        3.1325979746
 C        -7.1486027433        7.2072960562        2.3278925477
 C       -13.2811454307        6.4182461609        6.9376758737
 C       -10.9325957240        5.4602513685        7.0176138100
 C       -12.9578765740        3.9733803826       -0.0328211988
 C       -14.0055773716        1.8551202113        1.0286165914
 C        -7.2765524177       -2.0830630276        1.3959912473
 C        -6.5668746579        0.3968054429        1.3073827618
 C       -12.1507917885        0.6527399927       -4.1073283260
 C       -10.5035654712       -0.8267802785       -5.3141309952
 C        -6.5310337082        2.9302964368       -9.4164529000
 C        -4.7671166209        2.9851032050       -7.3308972037
 H        -8.6405083046        4.6164209074       -8.5727353525
 H        -7.3889103380        5.6893480568       -9.1224648479
 H        -8.2800504081        6.1982886933       -7.6338364535
 H        -7.8308662798        3.3802004541       -5.4453876100
 H        -6.4045245508        2.5087679830       -4.8732791733
 H        -7.8040313400        1.1875799400       -3.7671359000
 H        -8.0084258556        0.3093291125       -5.2253004571
 H        -8.5121063408       -1.4066477391       -3.3110954153
 H        -9.9825171396       -2.2738129201       -2.8178001929
 H        -8.6230698123       -2.6528130841       -0.9503541514
 H        -9.8920069106       -1.6094680347       -0.5835953892
 H        -9.2095489517        1.3699683815        0.2956965387
 H        -8.9434338314        1.8084908031        1.8740812476
 H       -11.3335443653        0.7168636816        2.2613514419
 H       -11.5429932383        0.9121547534        0.4675102331
 H       -13.8063850716        2.5243917594        3.9107424930
 H       -15.2260512599        3.5062523106        3.4455938710
 H       -14.2693960730        3.7908776623        5.6599294480
 H       -14.5594554479        5.3048498892        4.6635712527
 H        -9.8613978354        7.6077118056        6.6856050288
 H       -11.0276968215        8.9397599461        6.5037280830
 H        -8.8605799460        9.4237011062        5.3408694931
 H       -10.1716002717        9.3251701998        4.1969271994
 H        -7.8860791264        9.6921286463        0.1981470150
 H        -9.4182385479       10.4552089772        1.0340988045
 H        -9.6534043234        9.5516847376       -0.3518678229
 H        -8.1825316936       10.4145980937        3.3338422177
 H        -6.7102131458        9.8518953541        2.3666848542
 H        -6.9245405566        9.4900180067        4.0173930244
 H        -7.6813130445        6.2758757269        2.2430220175
 H        -6.4124406740        7.2170747764        3.1870853101
 H        -6.6125836305        7.2416762896        1.3577453513
 H       -13.7344986548        5.5482766659        7.4022629074
 H       -14.0297767191        6.9949471149        6.4289283761
 H       -12.9716566447        6.9602845451        7.8238281101
 H       -10.0507465277        5.2069695477        6.4647568153
 H       -11.1742524812        4.5329614404        7.4916125022
 H       -10.6048054311        6.1612231069        7.7774814513
 H       -12.8376302196        3.5076444112       -1.0470565839
 H       -12.2779335585        4.7913177260        0.1065335153
 H       -13.9397403269        4.3838363250       -0.2260554843
 H       -15.0300288011        2.1673776769        1.2583433329
 H       -13.8213750483        1.0820682774        1.7660510426
 H       -13.9543621328        1.4908649640        0.0109318483
 H        -6.3206757361       -2.4029361580        0.9633524484
 H        -7.9691884380       -2.8372957536        0.9858929733
 H        -7.2313700574       -2.1672047090        2.4721674437
 H        -5.6269839525        0.2020242228        0.7016191264
 H        -6.2236508696        0.4770467934        2.4013834854
 H        -6.8436412442        1.3972124608        1.1401161909
 H       -12.7808060639       -0.1079207465       -3.7387848425
 H       -12.5170382099        0.8857011402       -5.0801128842
 H       -12.3357886788        1.5450015360       -3.4695478560
 H       -11.0019440126       -0.5639738290       -6.2377956464
 H       -10.9901730862       -1.7162892080       -4.8878037559
 H        -9.4986961644       -1.1668886792       -5.6215997089
 H        -7.4133745285        3.4633736989       -9.7854540596
 H        -6.7829487726        1.9121854652       -9.6105095799
 H        -5.7108248591        3.4094031485       -9.8502726672
 H        -4.5189036495        1.9620852995       -7.2463644175
 H        -4.7790458832        3.4886096438       -6.3224668638
 H        -4.1110484370        3.5966509413       -7.9203958712
 Na      -10.6472756450        5.7872497375        2.4021192307
