117

 C        -8.1763489858        5.4519620533       -8.0245570860
 C        -7.0562426081        4.7832191320       -7.3115470217
 O        -6.6303554638        5.1433937706       -6.2252425542
 C        -6.4581674500        3.4311525983       -7.9348417800
 C        -7.2279537341        2.2107127870       -7.2514190010
 O        -7.9525322394        1.5536223084       -7.9475936445
 C        -7.1701529820        2.0957774919       -5.6683318082
 C        -8.1050500708        1.0575342536       -5.1988907631
 C        -9.4559588535        1.4857793031       -4.6470194738
 O        -9.8248582247        2.6304426935       -4.5864078227
 C       -10.4352689817        0.3259561089       -4.2436485698
 C       -10.0712191440       -0.1840805236       -2.8064319325
 O       -10.5174760651        0.3142118470       -1.7822736421
 C        -9.1400233414       -1.4131410611       -2.7325259760
 C        -8.4505384427       -1.5528770379       -1.3982192701
 C        -7.6999470104       -0.3880844265       -0.6928916492
 O        -7.3288846505        0.5564162773       -1.3305285629
 C        -7.4750654608       -0.4492894804        0.9291925848
 C        -8.9171121503       -0.2234147625        1.4763988103
 O        -9.5984078906       -1.0455400141        2.0277049658
 C        -9.4036517151        1.2127496984        1.5451292384
 C       -10.9325280689        1.3801793163        1.4057775492
 C       -11.3770511220        2.8533807378        1.4070858224
 O       -10.5654019999        3.7609219046        1.5709154351
 C       -13.0144598738        3.2239207969        1.1632929227
 C       -13.4808343505        4.1461660650        2.2885311383
 O       -13.3433153775        5.3655927046        2.2399814628
 C       -14.1767336562        3.5995557691        3.5464482982
 C       -14.0284019247        4.6151147892        4.7330087287
 C       -12.5978450484        4.8252953591        5.2346393325
 O       -11.7493205443        4.1482593657        4.7433472193
 C       -12.2352354046        5.8369262113        6.2978022089
 C       -11.5830901539        6.9912316027        5.4293336618
 O       -11.9958970198        7.1979444220        4.2945818286
 C       -10.3681771425        7.8482794123        5.9632761109
 C        -9.6451403240        8.6552090255        4.8938510856
 C        -9.1494271578        7.6320325168        3.8830422637
 O        -9.3040217521        6.4399250502        4.0731565133
 C        -8.2009989883        8.1002639168        2.6875570706
 C        -9.1295983420        8.1875145412        1.3806576522
 O       -10.0325124880        7.3887722409        1.1798142510
 C        -8.9521595649        9.4070164435        0.3712407330
 C        -7.4711956990        9.4714661843        3.0014056851
 C        -7.1178681195        7.0258280212        2.4912142826
 C       -13.3709536251        6.3587529294        7.1099151455
 C       -11.2663545184        5.1517231673        7.2539542160
 C       -12.8463194892        4.0949383332       -0.1070624842
 C       -13.8613826402        1.9449871718        1.0347333513
 C        -6.9742428342       -1.8363457432        1.2423335345
 C        -6.5471366598        0.6537469004        1.3945677537
 C       -11.8687331124        0.9063469469       -4.1180791933
 C       -10.3978059966       -0.8414090189       -5.3067773648
 C        -6.4644398018        3.3627565021       -9.5127511949
 C        -4.8872930659        3.3501168219       -7.5334951000
 H        -8.3788112215        4.8917135516       -8.9698492899
 H        -7.9559257040        6.5254190177       -8.3041517839
 H        -8.9863851415        5.3661028069       -7.3960247189
 H        -7.3209899342        3.0903442644       -5.1736732478
 H        -6.1615872102        1.8739004538       -5.3891101385
 H        -7.7291537358        0.4206973563       -4.4056841874
 H        -8.2764260092        0.3962764617       -6.0643271937
 H        -8.3465879043       -1.3608242407       -3.4861720182
 H        -9.7425345426       -2.2716038496       -2.9911183547
 H        -7.7225232190       -2.2671016387       -1.4810122042
 H        -9.1183982470       -1.8885090604       -0.5917528556
 H        -8.9093785578        1.9095098568        0.9333016970
 H        -9.1162152499        1.5514973984        2.4920619038
 H       -11.4360541648        0.9593713368        2.2632260955
 H       -11.2966808846        0.8490484505        0.4613853794
 H       -13.5982911873        2.7280547470        3.9035030239
 H       -15.2311725734        3.4157334906        3.2834017030
 H       -14.7378323001        4.2099666242        5.5609606547
 H       -14.4983813711        5.4996037575        4.3747306945
 H        -9.7199301438        7.1757784920        6.5106531334
 H       -10.6294204661        8.5481723970        6.7834708499
 H        -8.8993533248        9.3166925240        5.3043787981
 H       -10.3735801471        9.3066741791        4.4211493062
 H        -8.0183962381        9.3588507246       -0.1293399213
 H        -9.0786247903       10.2578641697        1.0571185283
 H        -9.7516980144        9.3513528848       -0.4311988888
 H        -8.1488557524       10.3197791322        3.1106026025
 H        -6.8807832845        9.7514909826        2.1950733093
 H        -6.8194131803        9.3453331012        3.8948647569
 H        -7.5905898478        6.0130610794        2.2595190971
 H        -6.4540642637        6.9516154890        3.3137524763
 H        -6.5719066090        7.2915448973        1.5499572255
 H       -13.8635859147        5.4775806708        7.5200104559
 H       -14.0689492734        6.9188888864        6.4973840842
 H       -13.0991035263        7.0020783753        7.9911148558
 H       -10.4889738267        4.5323737701        6.8399287877
 H       -11.8027372386        4.5571238368        7.9426692282
 H       -10.8437997982        5.9204267061        7.8600280493
 H       -12.2070216963        3.7471897483       -0.9011813024
 H       -12.2734318149        5.0004803561        0.1465723435
 H       -13.8036267486        4.3170623230       -0.5657494106
 H       -14.9601748638        2.1457388283        1.0611030312
 H       -13.6580979709        1.1096232667        1.7436542697
 H       -13.6335514428        1.5131300184        0.0444142565
 H        -6.0859012483       -2.1934093803        0.6791776844
 H        -7.7296146395       -2.6091630782        1.1600690927
 H        -6.6101880132       -1.8272219041        2.2603455489
 H        -5.5074811864        0.4693598902        1.1102618800
 H        -6.5668262887        0.8356527514        2.4535306450
 H        -6.6456874778        1.6933788271        0.8682376951
 H       -12.6253995393        0.2038324917       -3.7511499020
 H       -12.1892760778        1.2556179744       -5.0947936236
 H       -11.8837072156        1.7644946721       -3.4871781268
 H       -10.8823605257       -0.5393588678       -6.2393012837
 H       -10.9872273169       -1.7074234660       -4.9433108575
 H        -9.3776584369       -1.1658377812       -5.4120975407
 H        -7.5056388121        3.2894092020       -9.8065093151
 H        -5.8085950464        2.5499708063       -9.8666732280
 H        -6.0696596082        4.3188515565       -9.9609140263
 H        -4.5738675836        2.2823353951       -7.7561419643
 H        -4.6198215133        3.7453694491       -6.5938564279
 H        -4.3657162642        3.8821910474       -8.3044377776
 Na      -11.0099426475        5.8251670468        2.6223850666
