117

 C        -8.0373541544        5.4735083347       -8.1338332210
 C        -6.8190012523        4.7879657931       -7.3987745941
 O        -6.3981077248        5.3175845529       -6.3922830032
 C        -6.3662174415        3.3392626006       -7.9062273308
 C        -7.2495201321        2.1769247250       -7.1958941861
 O        -7.9170884864        1.3693657915       -7.8281367259
 C        -7.3226320037        2.3436452705       -5.6782252798
 C        -8.0113447924        1.1356073178       -5.0184715847
 C        -9.5308369903        1.4187978959       -4.8075117659
 O        -9.8928465530        2.5497642822       -4.7830607249
 C       -10.4954137931        0.2986981624       -4.2757349572
 C       -10.1046744399       -0.1250743411       -2.7521005984
 O       -10.5093587137        0.4314933836       -1.7535772271
 C        -9.0720822770       -1.2904397434       -2.6370451352
 C        -8.6054791951       -1.6217113200       -1.2125802456
 C        -7.8444773638       -0.4835278078       -0.6013109002
 O        -7.5116055996        0.4530606980       -1.3066052856
 C        -7.5506338414       -0.5422047193        0.9757341718
 C        -8.9235493605       -0.2501963887        1.6064149402
 O        -9.5326266628       -1.0987958411        2.2695820512
 C        -9.4684435329        1.0933179185        1.4122830702
 C       -11.0368695614        1.2714774259        1.3424235412
 C       -11.4289012046        2.8043774293        1.3744770955
 O       -10.5677703057        3.6254606521        1.6303836002
 C       -12.9777372306        3.2224988592        1.1967686086
 C       -13.3755362184        4.2308891496        2.4090639540
 O       -13.0489698085        5.4082624209        2.3783426475
 C       -14.1009835297        3.6204934150        3.5895724292
 C       -13.9839876058        4.4778796144        4.8296676418
 C       -12.5910061073        4.6737768535        5.2033932153
 O       -11.7074518564        4.0824655645        4.5604294698
 C       -12.1154233939        5.8097141193        6.1479687399
 C       -11.5238346650        7.0788310757        5.3947753297
 O       -12.0159816555        7.2978531377        4.3116899877
 C       -10.5286921955        8.0700833261        6.1009543519
 C        -9.6275522610        8.7083616089        5.0137389417
 C        -9.0253068425        7.7501661521        3.9708485814
 O        -9.3630123881        6.5731965331        3.9417919434
 C        -8.1997981391        8.2678226397        2.8141544250
 C        -9.2045403948        8.3476974868        1.4001953855
 O        -9.9559457222        7.4759389638        1.0935703293
 C        -8.9265307734        9.4494883438        0.3694839756
 C        -7.4477060076        9.5749449870        3.0190702556
 C        -7.3011343501        7.0270378002        2.2726439133
 C       -13.3310994460        6.4451371509        6.8861652182
 C       -11.1119335820        5.2651710530        7.2192532773
 C       -12.9608530092        4.0220646864       -0.0644019243
 C       -14.0618757874        2.1004984793        1.0318497718
 C        -7.0414660397       -1.9159066592        1.4120652202
 C        -6.4496761400        0.5330153858        1.1884519425
 C       -11.9194897683        0.9245253213       -4.2807030949
 C       -10.5962443229       -0.8666642740       -5.2539349970
 C        -6.5449916465        3.1630642390       -9.4328100562
 C        -4.9349599448        3.0654321506       -7.3649885092
 H        -8.3969701782        4.9420193638       -8.9783494374
 H        -7.7155620974        6.4216400147       -8.4629701735
 H        -8.8059157022        5.6251921471       -7.3162371359
 H        -7.9220099879        3.1969060556       -5.4453135301
 H        -6.3465987854        2.6077636804       -5.2186297413
 H        -7.6253755212        0.8259694073       -4.0265160143
 H        -7.9214868938        0.2615706750       -5.6576066304
 H        -8.1820144557       -1.1316669934       -3.2390387271
 H        -9.5980730188       -2.1807531169       -3.0543634463
 H        -7.8632534293       -2.5284798835       -1.2616431996
 H        -9.3498832313       -1.8846795648       -0.4604448763
 H        -8.9684414419        1.7823508885        0.6477042090
 H        -9.0900316917        1.6202088357        2.3608031900
 H       -11.4461395138        0.9674066498        2.3338229098
 H       -11.5334281748        0.7669886368        0.5588772705
 H       -13.7050612798        2.6456753182        3.8183835338
 H       -15.1317171847        3.6434097873        3.1961587684
 H       -14.5587314871        4.0678112819        5.5749265497
 H       -14.4797140749        5.4409100345        4.4601095602
 H        -9.9229191147        7.5492072450        6.8821927428
 H       -11.1078312745        8.7527989126        6.7393816873
 H        -8.7620052457        9.2576240423        5.5002118842
 H       -10.1825948513        9.5118517011        4.4498976153
 H        -7.9253810446        9.1187712503       -0.0097033356
 H        -8.9750231792       10.3991793315        0.8509867050
 H        -9.6121303848        9.3812065396       -0.4274490798
 H        -8.0946272934       10.5126422238        3.0836940071
 H        -6.7250800186        9.7225987899        2.1047754745
 H        -6.7957667257        9.4853056266        3.8842297326
 H        -7.8326940036        6.2046704452        2.0008735701
 H        -6.6373020326        6.8192425274        3.1510017198
 H        -6.7178957941        7.2672270325        1.4453857288
 H       -13.8689419613        5.8114561834        7.6301322596
 H       -13.9945716615        6.9718263629        6.1474052586
 H       -12.9572896985        7.2402783376        7.4897958160
 H       -10.2386219014        4.8519820866        6.7358602940
 H       -11.5064666605        4.2988996053        7.6448259827
 H       -10.7828073885        5.9484138395        7.9868547491
 H       -12.8252425507        3.3232440222       -0.8915990579
 H       -12.1463357675        4.6832186813       -0.2199070523
 H       -13.9227323429        4.3711304365       -0.3836293281
 H       -15.0308945953        2.5290897658        0.7529018655
 H       -14.2571755583        1.5781096496        1.9743313821
 H       -13.7768463293        1.3104185562        0.2982276419
 H        -6.4044485836       -2.3997941591        0.7212201391
 H        -7.8779792777       -2.6031404437        1.4816245422
 H        -6.4518210095       -1.8706358090        2.3596809682
 H        -5.4690407133        0.3353514880        0.7005907101
 H        -6.2718846158        0.6155731864        2.2753834017
 H        -6.6341718604        1.5316594304        0.9145614050
 H       -12.6534554862        0.1523116253       -4.0281433255
 H       -12.2617413871        1.3265976005       -5.2474370636
 H       -12.0489637853        1.6871966324       -3.4984569720
 H       -10.8239775797       -0.4496520923       -6.2402682353
 H       -11.4034761257       -1.5449642379       -5.0100760266
 H        -9.6952235368       -1.5180157612       -5.2788801863
 H        -7.5271384740        2.7503498723       -9.7371544118
 H        -5.7221638284        2.4126070908       -9.6624085386
 H        -6.4664401209        4.1522982177       -9.9497081364
 H        -4.7311465795        2.0751762994       -7.4992173697
 H        -4.9570221141        3.4033572425       -6.3111779695
 H        -4.1584224857        3.7442050000       -7.8077649409
 Na      -10.8982827487        5.7392395562        2.4391931668
