117

 C        -7.8411870144        4.7501192984       -8.0730455800
 C        -6.5206257986        4.2000083632       -7.4353884348
 O        -5.6900070404        4.9468204904       -6.9854689640
 C        -6.2763821514        2.6077906921       -7.4111907013
 C        -7.3488391004        2.0922534701       -6.4601665556
 O        -7.9667497426        1.1109402799       -6.7895275558
 C        -7.4724066295        2.7592273715       -5.1188620565
 C        -8.4313496003        1.9881178133       -4.1551428890
 C        -9.9179139776        1.8058270317       -4.6140241217
 O       -10.5531913838        2.6749372704       -5.1574004998
 C       -10.5802929360        0.3922820639       -4.3478278640
 C       -10.1935047796       -0.0457325543       -2.9022392952
 O       -10.4748174101        0.6797452284       -2.0031030983
 C        -9.6721535516       -1.5269808994       -2.6560460730
 C        -9.3041297912       -1.7453742489       -1.1908446942
 C        -8.0199127721       -1.0093663676       -0.6969894287
 O        -7.2656053064       -0.5186245454       -1.5203727315
 C        -7.8591307665       -0.9804192884        0.9032897478
 C        -9.0978298015       -0.2378167072        1.4492278040
 O        -9.9176095361       -0.8056165531        2.1663625783
 C        -9.2845598277        1.3345364328        1.2690490783
 C       -10.7897626559        1.5720126684        1.0110684623
 C       -11.3795140095        2.9479536898        1.2279554086
 O       -10.6360927854        3.8847108205        1.4810188920
 C       -12.9626147985        3.0954180503        1.1838573118
 C       -13.4143422758        4.1457062072        2.3247744129
 O       -13.3064110739        5.3395622836        2.1597657241
 C       -13.8360674585        3.5880090915        3.6622685305
 C       -13.6271799091        4.7518352093        4.6758808256
 C       -12.1594480792        4.9530140633        5.0474784455
 O       -11.2387317183        4.4084451916        4.3850871649
 C       -11.7803838465        6.2068114847        6.1033440175
 C       -11.3431172198        7.3995294497        5.1909916019
 O       -11.7458889969        7.4844584684        4.0503600374
 C       -10.4297312829        8.4865445016        5.7753278814
 C        -9.5814939757        9.2102388763        4.6863535427
 C        -8.9249673788        8.0240505337        3.8313899172
 O        -8.9219731551        6.9071123615        4.2548245041
 C        -8.2019489253        8.5339125259        2.5454993701
 C        -9.3147704805        8.6131525525        1.4185629983
 O       -10.1255513275        7.7180101250        1.3392141400
 C        -9.2847428749        9.9157404985        0.5534092248
 C        -7.4442297720        9.8210510403        2.7600771515
 C        -7.1250116658        7.4694803320        2.0902706562
 C       -13.0499987364        6.6439110035        6.8754490389
 C       -10.7514708259        5.6135773416        7.1266788392
 C       -13.1818164969        3.8072273025       -0.1684561452
 C       -13.7036401172        1.7413006653        1.3040559726
 C        -7.8710614894       -2.3979237481        1.4257279727
 C        -6.4953332934       -0.2738563581        1.1854395555
 C       -12.1265134927        0.5933557956       -4.3136706202
 C       -10.1585098896       -0.5222887955       -5.4668261553
 C        -6.4246865542        1.8899818578       -8.8124192759
 C        -4.9130885288        2.1936135835       -6.7823995401
 H        -8.2964806738        5.4637004619       -7.4246808817
 H        -8.4713866770        3.9681360194       -8.3703815208
 H        -7.5321726415        5.3072595816       -9.0042750138
 H        -7.9147573181        3.7267376346       -5.3032204100
 H        -6.5094923844        2.9077495558       -4.6347231772
 H        -8.4362825446        2.3394405054       -3.1305735075
 H        -8.0690721816        0.9438449548       -4.0742296169
 H        -8.8312849421       -1.6828609580       -3.3761819233
 H       -10.4642210540       -2.1999580877       -2.9613826527
 H        -9.0670239901       -2.8359148823       -1.0265467259
 H       -10.2129549016       -1.5736578413       -0.5273723862
 H        -8.6419089891        1.6357270421        0.4437794202
 H        -9.0215766998        1.8122114220        2.3066894446
 H       -11.3414405139        0.9434980429        1.6786853884
 H       -11.1121273561        1.2356126143       -0.0192216809
 H       -13.2712634915        2.7008361048        3.9305055202
 H       -14.8187042299        3.1382857378        3.5881642421
 H       -14.1745370335        4.5544687398        5.5867672377
 H       -14.0744864816        5.6140627606        4.2449928688
 H        -9.6871871661        8.0013465157        6.4316019387
 H       -11.1528942153        9.1060510545        6.2765531581
 H        -8.7740113873        9.7766596454        5.2377292313
 H       -10.1858808364        9.8804927666        4.0115296881
 H        -8.4703256356        9.8323755030       -0.1378073440
 H        -9.0086534297       10.6022897590        1.3315927707
 H       -10.2580179254       10.0990837822        0.2456508294
 H        -8.0835003555       10.7526651452        2.8215493086
 H        -6.8082957691       10.0377747970        1.8040421904
 H        -6.8288706042        9.6746146337        3.6340836092
 H        -7.5099174656        6.5340494647        1.9812239962
 H        -6.2959850623        7.3350861977        2.8177048984
 H        -6.6759142863        7.8522087787        1.2249637538
 H       -13.4670927365        5.7674034996        7.4018362088
 H       -13.9107661465        6.8650462780        6.2453957037
 H       -12.9128573369        7.5177040946        7.5678555097
 H        -9.8360935315        5.5995937112        6.5889252045
 H       -10.9341764453        4.6010313377        7.4196950904
 H       -10.4945241696        6.1367939785        8.0330794043
 H       -12.9111592059        3.0898903072       -0.9464029315
 H       -12.6113383117        4.6510183779       -0.3779664761
 H       -14.1671679472        4.1700284769       -0.1973288593
 H       -14.7876291086        2.0277865321        1.1654368845
 H       -13.4080303353        1.2851128055        2.2792164850
 H       -13.4138075458        0.9840392152        0.5602416383
 H        -7.1022783925       -2.9681793617        0.8707398548
 H        -8.8922757238       -2.7972097742        1.2810190664
 H        -7.6974832852       -2.4587447062        2.4718022754
 H        -5.8136371417       -0.6376059997        0.3934327675
 H        -5.9297088438       -0.5864827831        2.0868826457
 H        -6.4519750057        0.7528344537        1.0491748339
 H       -12.5729521642       -0.3241035445       -4.0082808974
 H       -12.6002999988        0.9411632501       -5.2036402538
 H       -12.3965611402        1.4193721082       -3.5982921833
 H       -10.5486722011       -0.1710324175       -6.3956900306
 H       -10.4268807162       -1.5840090644       -5.5140242744
 H        -9.0775139036       -0.5032078805       -5.5808156116
 H        -7.5592228258        1.9193441201       -8.9325809682
 H        -5.8751093121        0.9403250009       -8.7770180722
 H        -5.8183559807        2.4697818454       -9.5328803290
 H        -4.8286612084        1.1707333343       -6.5184891291
 H        -4.8151676483        2.8369198236       -5.8549999017
 H        -4.1559559470        2.4615905121       -7.4854786076
 Na      -11.0930271876        5.9512968720        2.3656415222
