117

 C        -7.7705841016        4.8554617054       -8.1355438493
 C        -6.5160069489        4.3296853076       -7.4421757036
 O        -5.6961608847        5.0698530136       -6.9335715432
 C        -6.3313955631        2.7453359775       -7.5226068447
 C        -7.3669818080        2.0795957992       -6.6696710467
 O        -7.9843177792        1.0516333119       -6.9551004332
 C        -7.6777403296        2.7863114619       -5.2968639192
 C        -8.2856327619        1.8203755040       -4.2876550890
 C        -9.8227953246        1.6862504113       -4.6502336068
 O       -10.3605709304        2.6496917814       -5.1742555721
 C       -10.6069009770        0.3732342876       -4.3156576621
 C       -10.1818332382       -0.0931438582       -2.8810639841
 O       -10.4509474006        0.5660050126       -1.8681166989
 C        -9.4273445147       -1.4585987315       -2.6642669630
 C        -9.3379506343       -1.7183499821       -1.1868349269
 C        -8.0809326470       -0.9910541877       -0.6429548684
 O        -7.3777338199       -0.3443131354       -1.3643024707
 C        -7.8003505786       -0.9235189837        0.9298325349
 C        -9.0473486470       -0.1884673123        1.5802462975
 O        -9.7392791749       -0.8814962990        2.2727870829
 C        -9.3159536985        1.2755751526        1.2536663827
 C       -10.8478543124        1.4678364116        1.2033477347
 C       -11.4010273497        2.8847486545        1.2936352916
 O       -10.6483124473        3.8218180858        1.4857960030
 C       -12.9891802916        3.0490980300        1.1578224020
 C       -13.4576637624        4.0573125420        2.2820872198
 O       -13.5680123091        5.2665420673        2.0142661954
 C       -13.9438021537        3.6316671016        3.6500899623
 C       -13.6924561469        4.5736596862        4.8588215245
 C       -12.1793119951        4.9158913638        5.0676172723
 O       -11.3677527623        4.2934287674        4.4712888331
 C       -11.8446084692        6.1443088348        6.0825148464
 C       -11.3919920662        7.3447613026        5.2223501654
 O       -11.8417993227        7.5630588072        4.0985992124
 C       -10.4690153859        8.3519643238        5.8387531178
 C        -9.6923431690        9.0394088414        4.7156243407
 C        -8.8090446254        8.0258885304        3.9284176988
 O        -8.7623421594        6.8379430995        4.2181892119
 C        -8.0416610123        8.5546899854        2.6085386036
 C        -9.2085116284        8.6274621170        1.4312928640
 O       -10.0261551592        7.7207631842        1.3686276842
 C        -9.2639026250        9.9171664414        0.4818642817
 C        -7.2829756178        9.8573347791        2.8280149565
 C        -7.1955975163        7.3856869178        2.1763350721
 C       -13.1636587342        6.5928233749        6.9286631319
 C       -10.7195518313        5.6780891600        7.0108407374
 C       -13.2006085995        3.7923468706       -0.1590067515
 C       -13.8155367638        1.7777237203        1.1411015640
 C        -7.6467039439       -2.3790422578        1.3800216840
 C        -6.4849678104       -0.1815495299        1.1450493341
 C       -12.1051545708        0.6827945176       -4.3031657749
 C       -10.2717642403       -0.6541088887       -5.3889493875
 C        -6.4077810605        2.3107228524       -9.0132652391
 C        -4.9254261312        2.4690750569       -6.9701339651
 H        -8.5105334590        5.1730244691       -7.3574802919
 H        -8.1711928919        4.0665099606       -8.8382159443
 H        -7.5274768087        5.6875734367       -8.6855109381
 H        -8.4045197564        3.6115781107       -5.3038178014
 H        -6.6915505625        3.1337945484       -4.9490739492
 H        -8.3683308578        2.1845001044       -3.2461315379
 H        -7.7655135336        0.8799765438       -4.2245986350
 H        -8.4606307760       -1.4402883563       -3.1114682296
 H       -10.0817557201       -2.1645537568       -3.2105942786
 H        -9.3409768938       -2.7560056189       -0.9035312456
 H       -10.1228307893       -1.2476917930       -0.6540227334
 H        -8.8204546575        1.5728835895        0.2883955974
 H        -8.9233984527        1.7971659772        2.0528801110
 H       -11.2652732503        0.8629732888        2.0476220570
 H       -11.3104399656        1.1288368555        0.3104629665
 H       -13.5187087197        2.6567399321        3.9543413775
 H       -15.0077391936        3.2995288421        3.5624222418
 H       -14.1652251207        4.0657267642        5.6927473696
 H       -14.3612510358        5.5032691882        4.6592175955
 H        -9.7319437193        7.8717601860        6.4804819015
 H       -11.1243394754        9.1090198209        6.3451342610
 H        -9.0903362600        9.7402328268        5.2631935966
 H       -10.3264663997        9.5233260347        3.9846038347
 H        -8.3900837663        9.7186328722       -0.1580640201
 H        -9.1823769917       10.8474391370        1.0301838214
 H       -10.2870347994        9.8504087046        0.0610644353
 H        -8.0166011046       10.5642787342        3.2294323069
 H        -6.9898381485       10.2595179615        1.9202461969
 H        -6.4380846469        9.7429345043        3.5396496730
 H        -7.8099911786        6.4302195571        2.0526491366
 H        -6.4179585055        7.1973012863        2.9116621628
 H        -6.6087908892        7.6081199560        1.2564446523
 H       -13.7935033406        5.8508558077        7.3845257131
 H       -13.8867902877        7.1311109237        6.3003819010
 H       -12.8238124118        7.2862347861        7.6255208933
 H        -9.8266466728        5.3709741408        6.5081708029
 H       -11.0833206761        4.8753741079        7.6796476632
 H       -10.3623524607        6.3763650199        7.7150244936
 H       -13.0214270157        3.1108582884       -0.9516530159
 H       -12.6257281083        4.7320829842       -0.3413593971
 H       -14.2176359288        4.2689671525       -0.2487778863
 H       -14.8402141282        2.0474994061        1.1273595976
 H       -13.5120604010        1.1002696484        1.9262293564
 H       -13.5959895502        1.2755035275        0.1908897209
 H        -7.0018458584       -2.7875230811        0.6414359129
 H        -8.6014163552       -2.8715106886        1.3993705683
 H        -7.2468534162       -2.5634074864        2.4105975672
 H        -5.6408124544       -0.7861755024        0.7655678467
 H        -6.2084823172       -0.1293619035        2.1769558862
 H        -6.3930593424        0.9043618883        0.6986800520
 H       -12.7887001541       -0.1678019792       -4.2231998979
 H       -12.3344980183        1.1862107318       -5.2547881389
 H       -12.3507960079        1.4393432506       -3.6306416836
 H       -10.6317478116       -0.4535602281       -6.4116343044
 H       -10.6781980482       -1.6318949019       -5.1886496414
 H        -9.1901391592       -0.7632887102       -5.5163567665
 H        -7.3574922665        1.9406894226       -9.2138845244
 H        -5.5948569242        1.5832202622       -9.1428721544
 H        -6.0570016523        3.1752272436       -9.5574163468
 H        -4.7226057077        1.3947096571       -6.9549104318
 H        -4.8891591741        2.8051185281       -5.9726618280
 H        -4.2249046238        2.9884006150       -7.6748270629
 Na      -11.0873005808        5.9627525738        2.4550797281
