117

 C        -7.7221015627        4.4029212019       -8.1748590739
 C        -6.4385828309        3.9193184777       -7.4655914221
 O        -5.6415986672        4.7387880730       -7.0663359595
 C        -6.2393015827        2.4159337306       -7.1604512184
 C        -7.3512689619        1.9953360600       -6.1376671558
 O        -8.0901927511        1.1044628000       -6.4787709108
 C        -7.5519236925        2.7399543491       -4.8038992818
 C        -8.6014698508        2.0092135127       -3.8606767120
 C        -9.9846421118        1.7988618333       -4.5586869706
 O       -10.5699271606        2.6970957747       -5.1064422662
 C       -10.7039856238        0.3940755713       -4.3588144222
 C       -10.2724207385       -0.0824130093       -2.9303876008
 O       -10.2774325359        0.7928168689       -2.0800803479
 C        -9.8025430597       -1.5186715071       -2.7219752199
 C        -9.4148529411       -1.9052942991       -1.2376078442
 C        -8.1286173142       -1.1644893306       -0.7805411361
 O        -7.3393494407       -0.6528959210       -1.5575043740
 C        -7.9795798259       -0.9964951815        0.8061039418
 C        -9.1328902755       -0.2627515223        1.4491024061
 O       -10.1287964616       -0.7838172511        1.9560298306
 C        -9.3038862609        1.2410087560        1.0201673429
 C       -10.8574133438        1.5349537719        0.8722473103
 C       -11.2788646153        2.9380359357        1.2373474713
 O       -10.4791715398        3.8376303600        1.4635425165
 C       -12.8628712371        3.2273803329        1.1680840211
 C       -13.1648215565        4.2413818934        2.2761756903
 O       -13.0514214260        5.4319722680        2.1260254739
 C       -13.6400275167        3.7200881128        3.6218924728
 C       -13.5885710957        4.6740493918        4.8088629816
 C       -12.2009874250        5.1268732855        5.0696841467
 O       -11.2901282419        4.6538367348        4.4003989127
 C       -11.8471329995        6.2383148209        6.1525019945
 C       -11.3769531419        7.5070515832        5.2788539385
 O       -11.7711042578        7.6858767189        4.1324974987
 C       -10.3933697792        8.5556371443        5.8407699355
 C        -9.4248113498        9.1381827607        4.7482938456
 C        -9.0209739645        8.0945816386        3.7286492663
 O        -9.1589382843        6.9265271214        3.9847513381
 C        -8.3410353783        8.6097692126        2.4154936658
 C        -9.3772557445        8.7331883315        1.3189296901
 O       -10.1451035176        7.8168671581        1.1951069774
 C        -9.3591299833        9.9359522691        0.4301093950
 C        -7.5087827677        9.8932413371        2.6945954245
 C        -7.4106560411        7.4858250490        1.9843930107
 C       -13.0079297288        6.7306830327        6.9541436580
 C       -10.5648152522        5.7589012232        6.9547420532
 C       -13.1436413710        3.7517515995       -0.2621296119
 C       -13.5486478209        1.8303827107        1.4045227198
 C        -7.9207880004       -2.4055122358        1.3231109925
 C        -6.7056122793       -0.2931601868        1.1770634454
 C       -12.1982515822        0.6864779081       -4.5070477474
 C       -10.0837801504       -0.4867629341       -5.3909626120
 C        -6.4099348198        1.5836637429       -8.4484584348
 C        -4.8674622297        2.1411343278       -6.6324572332
 H        -7.6799767796        5.4797823893       -8.1723980089
 H        -8.6084316446        4.0291831979       -7.7221816274
 H        -7.7040048780        4.0207277451       -9.2884601467
 H        -7.9445224695        3.7820823696       -5.0722157850
 H        -6.7244165175        2.8966579592       -4.1730977626
 H        -8.6835891199        2.6123932609       -2.9637935061
 H        -8.1993741389        1.0400308322       -3.5210002081
 H        -8.9747653673       -1.6230275064       -3.4102407818
 H       -10.5549711481       -2.1943787440       -3.1118390677
 H        -9.3764152006       -2.9345095850       -1.1999452145
 H       -10.1761102882       -1.5971132153       -0.4866180082
 H        -8.8145516817        1.3554698388        0.1022361471
 H        -8.8546824928        1.9147292271        1.8214630271
 H       -11.4620273292        0.8416650827        1.4244900249
 H       -11.0852483805        1.3300554596       -0.1964425636
 H       -13.0975385860        2.7802908595        3.9448667546
 H       -14.6832408725        3.3189245679        3.5538936711
 H       -13.9827620824        4.0812317244        5.7368374144
 H       -14.2493357933        5.4512537392        4.7155334230
 H        -9.8330660547        8.0059641306        6.6011180642
 H       -11.0109758863        9.3880047544        6.2627751937
 H        -8.4821919426        9.4582128193        5.1648875911
 H        -9.8969182486       10.0165135902        4.3128326710
 H        -8.3219180932       10.1976454128        0.3832990462
 H        -9.9381563223       10.7228265247        0.9884714435
 H        -9.7941201171        9.5235555778       -0.4825711228
 H        -8.0419819918       10.7353947279        3.0620975485
 H        -7.0333331394       10.2288262176        1.7328933183
 H        -6.6777396593        9.6725264668        3.3071765471
 H        -7.9746596243        6.5576295361        2.0425530950
 H        -6.6798301014        7.2666322160        2.7926800867
 H        -6.8877140016        7.6472506032        0.9979569184
 H       -13.5451334239        5.9825966552        7.4879238598
 H       -13.6978820103        7.2106376971        6.3343901856
 H       -12.6343076112        7.5074335527        7.6693264890
 H        -9.8838368082        5.2112095158        6.2878417150
 H       -10.8854169327        4.9902025234        7.6200445011
 H        -9.9355278910        6.4223446147        7.5969205494
 H       -12.4526475114        3.2454882040       -1.0388114726
 H       -12.7293116964        4.7700227253       -0.3060854337
 H       -14.1969281784        3.8130750098       -0.5165195230
 H       -14.5517724150        2.0405206365        1.6904668325
 H       -13.0423276160        1.2063106610        2.1021470595
 H       -13.5883567052        1.3242497208        0.4906559961
 H        -6.9496560419       -2.8709287341        1.0333000881
 H        -8.7850570041       -2.9929961641        1.0065099634
 H        -7.8684865646       -2.3244948248        2.3746367018
 H        -5.7423457242       -0.6726418291        0.7396457897
 H        -6.5559586950       -0.2156114227        2.3264332623
 H        -6.7343740207        0.6514455022        0.6940958955
 H       -12.7949756191       -0.2299113694       -4.4551510914
 H       -12.4797447299        1.2338223317       -5.3876095052
 H       -12.5326751698        1.2953932504       -3.6409348841
 H       -10.3110864570       -0.2969178243       -6.4254561088
 H       -10.3535888273       -1.5492497465       -5.2916838569
 H        -9.0261768883       -0.5923515382       -5.2365987900
 H        -7.0929118354        2.2105388741       -9.0225403742
 H        -6.7700813018        0.6717623954       -8.1242338931
 H        -5.5142213897        1.4058648608       -8.9676408327
 H        -4.8059937644        1.0300858524       -6.5087757118
 H        -4.5898985377        2.7236097180       -5.7381789115
 H        -4.1777015101        2.3560043770       -7.4064154780
 Na      -10.6798087053        5.9705176924        2.4858980640
