117

 C        -7.7114184545        4.3636655870       -8.2224670531
 C        -6.4289283016        3.9576485319       -7.4754043322
 O        -5.6224289220        4.7540970976       -7.0619894706
 C        -6.2558014726        2.3558583491       -7.1510064307
 C        -7.4199131824        2.0375224971       -6.1301766403
 O        -8.1348884376        1.0663083186       -6.3528831255
 C        -7.5125258012        2.7760614315       -4.8448592326
 C        -8.5428411539        2.0195827281       -3.9397612118
 C        -9.8974801218        1.7930667368       -4.5678579830
 O       -10.5409778866        2.6853666661       -5.0989404880
 C       -10.5906579585        0.3734895181       -4.3505512874
 C       -10.2525943171       -0.0570420730       -2.8773355273
 O       -10.3275704303        0.7099619480       -1.9495490014
 C        -9.7735762663       -1.5341578876       -2.7150106452
 C        -9.5357200044       -1.7740624652       -1.2135791399
 C        -8.2333632227       -1.1471237314       -0.7667555082
 O        -7.4579817468       -0.6854566819       -1.5527217889
 C        -7.9928869527       -1.0569476633        0.7516200879
 C        -9.2809886501       -0.3466556576        1.2214483994
 O       -10.0765496864       -0.8890585551        1.9495185379
 C        -9.3548692735        1.2365454134        0.8861033937
 C       -10.8705523853        1.5870898837        0.8351283998
 C       -11.2300051295        2.9350567225        1.2207855250
 O       -10.4634623733        3.8625319985        1.4769595271
 C       -12.7609347266        3.2505308740        1.1551206983
 C       -13.1994260206        4.2778868450        2.3510403411
 O       -13.0160287418        5.4492997761        2.1057585139
 C       -13.7602280842        3.6759739322        3.6822755916
 C       -13.6228758481        4.7041761300        4.8497745883
 C       -12.1702226543        5.1449687133        5.0552199928
 O       -11.2207994516        4.6394502140        4.4001608960
 C       -11.8184439187        6.3495240556        6.0834753329
 C       -11.3230465579        7.5775764485        5.2047382664
 O       -11.9511770283        7.7781784445        4.2052837938
 C       -10.3022008816        8.5699372918        5.8966012368
 C        -9.3791134223        9.2219518872        4.8330026468
 C        -8.9605785836        8.1727454549        3.7531834677
 O        -9.1731064162        7.0073374213        3.9818413641
 C        -8.2735619227        8.5437240235        2.4348014036
 C        -9.4613111797        8.7409367677        1.2305612878
 O       -10.2840445858        7.8778971018        1.0091346714
 C        -9.3833752006       10.0118278882        0.3597003856
 C        -7.5242869137        9.8703567740        2.6328791442
 C        -7.2970143223        7.4658238402        1.9230411121
 C       -12.9600362692        6.6844995970        7.0150201341
 C       -10.6184978942        5.8388996023        6.9957090310
 C       -13.1072952072        3.8453939138       -0.2090407589
 C       -13.6069384048        1.8907104214        1.3146374807
 C        -7.8768568246       -2.5726040745        1.4117282926
 C        -6.6607137998       -0.2424759727        1.0887204301
 C       -12.0865475505        0.7020817069       -4.4568083322
 C       -10.2039617779       -0.5790635267       -5.5115799371
 C        -6.4222641015        1.4148079663       -8.3331539334
 C        -4.8583522660        2.0227539262       -6.4069087090
 H        -7.7470924396        5.4497272193       -8.4351740031
 H        -8.5881949218        4.0689427515       -7.6173935815
 H        -7.7374222959        3.8057176197       -9.1035311203
 H        -7.8290493108        3.7807255778       -5.0567578568
 H        -6.5917420719        2.8665396166       -4.2485965185
 H        -8.5631357307        2.4616821935       -2.9575039192
 H        -8.1685454407        0.9827529959       -3.8193339995
 H        -8.8547408203       -1.6943710560       -3.2940466690
 H       -10.4603598115       -2.2172962325       -3.1129287937
 H        -9.2990657873       -2.8623288295       -1.2031551278
 H       -10.3788661196       -1.6250966101       -0.5277461128
 H        -8.8257012902        1.3879872041       -0.0853050285
 H        -8.9029465043        1.8686563603        1.7332251756
 H       -11.4046331344        0.9809025882        1.5070728323
 H       -11.2718888990        1.3302931720       -0.1743389826
 H       -13.3731214992        2.6843246926        3.9667185057
 H       -14.8372871865        3.4520769946        3.5004400129
 H       -14.0088144523        4.3669482817        5.7630633441
 H       -14.2249064036        5.5992372144        4.6138688302
 H        -9.7284150451        7.9530403539        6.6370648115
 H       -10.9070468621        9.3350221521        6.3937070490
 H        -8.4207959793        9.6546351656        5.2648867858
 H        -9.9356612467       10.0988252910        4.4069968269
 H        -8.3428886966       10.3738397491        0.2951354621
 H        -9.9756448978       10.6823587833        0.9691377127
 H        -9.7948617766        9.6813713120       -0.5387468905
 H        -8.3050257658       10.7432893995        2.7277658058
 H        -6.8480160017       10.1240675609        1.7689952912
 H        -6.8498028970        9.9050964784        3.4982929997
 H        -7.8421251548        6.5791356507        1.7558669979
 H        -6.5171005085        7.0949346204        2.6688677420
 H        -6.8515714683        7.8036225104        1.0133796852
 H       -13.3411453772        5.7175218482        7.3551339109
 H       -13.7770875522        7.3087031320        6.6223166077
 H       -12.5931894799        7.1571562444        7.9053131296
 H        -9.8157676231        5.4119302910        6.4932362700
 H       -10.9646301109        5.0777333286        7.6971246142
 H       -10.2278722328        6.5942710362        7.6049463952
 H       -12.7269482064        3.1708095544       -0.9663817424
 H       -12.5908597913        4.7525423198       -0.4652204277
 H       -14.1900537464        3.9476768366       -0.2842702978
 H       -14.6458636644        2.2187541410        1.4292587291
 H       -13.3213082630        1.4521274198        2.2822730755
 H       -13.5303072906        1.1509306246        0.5123881260
 H        -7.0426952375       -3.0849241026        0.9532053863
 H        -8.8117526594       -3.1192321356        1.2037720095
 H        -7.6145074154       -2.4941571443        2.4574791926
 H        -5.7434859135       -0.8967368508        0.8670789149
 H        -6.5899679591        0.0123996464        2.1256473696
 H        -6.4137701625        0.6010341543        0.3760005022
 H       -12.6143277858       -0.2195522047       -4.4149104256
 H       -12.3958260615        1.1954091421       -5.3663888446
 H       -12.4831005126        1.2842283880       -3.5800895311
 H       -10.5658340545       -0.1789971416       -6.4347201622
 H       -10.5656039103       -1.6154347381       -5.5138887984
 H        -9.1390579552       -0.7697879269       -5.6093385065
 H        -7.2324942405        1.7560009921       -8.9756229156
 H        -6.5450330811        0.4602190746       -7.7838673191
 H        -5.4918861797        1.3679844732       -8.9403444107
 H        -4.7197854949        1.0171439071       -6.3887878115
 H        -4.8679079816        2.4967001658       -5.3915040629
 H        -4.0032265861        2.4642771088       -6.9237611749
 Na      -10.5498661143        5.9069279015        2.5101076962
