117

 C        -7.7997215190        4.9703187273       -8.1902362131
 C        -6.5528718691        4.3747591007       -7.4677837215
 O        -5.7243192357        5.0566904112       -6.9179024715
 C        -6.2910235977        2.8495039657       -7.5996782923
 C        -7.3564514615        2.0711117395       -6.7114732946
 O        -7.9653430712        1.1019430526       -7.0614709121
 C        -7.6135281051        2.7460695061       -5.3836900194
 C        -8.2467021004        1.8000117238       -4.3602590556
 C        -9.7652301735        1.7074305921       -4.6243604913
 O       -10.3332080839        2.6116444124       -5.1755481951
 C       -10.5998432609        0.3682943291       -4.2674240443
 C       -10.2408432806       -0.0534206221       -2.8392211079
 O       -10.4668790024        0.5939893044       -1.8395908303
 C        -9.4553807659       -1.4887732811       -2.6360250789
 C        -9.2017888762       -1.7133646453       -1.1765189456
 C        -8.0447280101       -0.8636845651       -0.6456197836
 O        -7.3541451990       -0.1887870231       -1.3938169325
 C        -7.7134369280       -0.9432373223        0.8953600578
 C        -9.0475694432       -0.2938634039        1.6116617473
 O        -9.7557290865       -0.8668351029        2.4280702015
 C        -9.3763925665        1.1712966907        1.2616723710
 C       -10.8787834055        1.3740371841        1.2588751235
 C       -11.4164336445        2.8744799801        1.3400693438
 O       -10.6379932163        3.8151133783        1.5285648590
 C       -12.9733961277        3.0860016775        1.1446827057
 C       -13.4766085956        4.1131970737        2.3067937656
 O       -13.4994101474        5.3173772745        2.0219012337
 C       -13.9129587305        3.5017581297        3.6848333622
 C       -13.7322619942        4.4290302073        4.8287365049
 C       -12.3192543570        4.9168791703        5.0846711376
 O       -11.3540929296        4.3673820062        4.5011145184
 C       -11.9675312261        6.0739445014        6.0877089264
 C       -11.5105700670        7.3489650887        5.2004663742
 O       -11.8862928834        7.5041030755        4.0700731652
 C       -10.4637215659        8.3859564951        5.8439602283
 C        -9.6291657770        9.0898860622        4.7083766303
 C        -8.8857510155        8.0032739248        3.8386538074
 O        -8.8034688295        6.8693067134        4.2297539995
 C        -8.1163177202        8.5247777965        2.5907001542
 C        -9.1815651689        8.6597957179        1.5164302325
 O        -9.9656758211        7.7477907674        1.3889256141
 C        -9.1904585373        9.7821881393        0.5329965853
 C        -7.2465712824        9.7615812704        2.8474626749
 C        -7.1485272881        7.4174521048        2.0942120288
 C       -13.0536964015        6.5978606489        6.9562615864
 C       -10.8823837443        5.4493411294        6.9621624625
 C       -13.1226862518        3.7970276584       -0.1905360752
 C       -13.9069249200        1.7919927044        1.1558534602
 C        -7.5849423610       -2.3805482749        1.4403632019
 C        -6.5247715666       -0.0543238767        1.1203719727
 C       -12.1181472500        0.6181998220       -4.3968766872
 C       -10.4289246519       -0.7374417999       -5.3050317120
 C        -6.4333109451        2.5113642897       -9.0815076308
 C        -4.8098404272        2.6113431623       -7.0591289593
 H        -8.6594813978        5.0919332995       -7.4881540310
 H        -8.0364943603        4.3395414121       -9.0449098789
 H        -7.5427749803        5.9607137548       -8.5542733480
 H        -8.3306083116        3.5339847928       -5.5309613630
 H        -6.6039248300        3.1895287061       -5.0510949886
 H        -8.1137361688        1.9240815399       -3.2758480175
 H        -7.8951988013        0.7771549044       -4.5581258960
 H        -8.4390567149       -1.5168774762       -3.0866277563
 H       -10.0799982973       -2.2736074970       -3.0905985148
 H        -8.7276886302       -2.7182154697       -1.1237065220
 H        -9.9988291157       -1.6871839285       -0.5188425299
 H        -9.0448400800        1.4668066079        0.2823238288
 H        -8.8897107066        1.7377676173        2.0022453296
 H       -11.2974580395        0.8603637365        2.1775155332
 H       -11.3738299328        0.9638599274        0.3746582033
 H       -13.3725080542        2.5797722782        3.9042440694
 H       -14.9232290296        3.0950430124        3.6564019325
 H       -14.1865313346        3.9345757551        5.6833728001
 H       -14.4655993422        5.3091872589        4.5542460490
 H        -9.8217212750        7.8022805443        6.5225897030
 H       -10.9692577571        9.1929539324        6.3241988548
 H        -8.9718567633        9.7662278882        5.2035779167
 H       -10.3000205866        9.6162501069        4.1008403418
 H        -8.1641367478        9.7770302198        0.0164108241
 H        -9.3812121733       10.7166558638        1.1205235678
 H       -10.1107459510        9.6284054668        0.0235664232
 H        -7.7605157460       10.5871720110        3.2961481404
 H        -6.8568322301       10.0397468954        1.8967080815
 H        -6.4897393039        9.4940239267        3.4504615888
 H        -7.6340742156        6.4748954966        1.8814096330
 H        -6.3326583570        7.2748963858        2.9377883573
 H        -6.5374226914        7.7314432352        1.2286050140
 H       -13.4629511572        5.8071106011        7.5785661417
 H       -13.9442475317        6.9921207069        6.4686848324
 H       -12.6439030723        7.3246159358        7.5912868022
 H        -9.9306524929        5.2660898803        6.4467492114
 H       -11.2150908216        4.5488016290        7.5677238951
 H       -10.5596602857        6.1098692776        7.7923727993
 H       -12.7345370067        3.1267289553       -1.0001391748
 H       -12.8022121915        4.8389720500       -0.3192102510
 H       -14.2240825392        3.9887689665       -0.4095245691
 H       -14.9314856411        2.0402092384        0.9845746767
 H       -13.7771520635        1.3408233569        2.1100985832
 H       -13.5803164710        1.1083114528        0.4064547955
 H        -6.8717922642       -2.9659049235        0.8962538227
 H        -8.5749972498       -2.8595466891        1.4915584858
 H        -7.3205544405       -2.3437369871        2.5066928047
 H        -5.5722019748       -0.5596976566        0.9339008183
 H        -6.4160155005        0.2280149511        2.1350118167
 H        -6.5743237429        0.8628320847        0.5616484407
 H       -12.6867583555       -0.2855578755       -4.5032313268
 H       -12.2763529117        1.1850535672       -5.3146188418
 H       -12.5929440673        1.2740645826       -3.6406006578
 H       -10.6336486471       -0.4047017129       -6.3101886907
 H       -11.1511938029       -1.5324746838       -5.1309190234
 H        -9.4360961054       -1.1915384724       -5.4331847134
 H        -7.4253987750        2.1850047162       -9.2913370025
 H        -5.7754461671        1.6714962614       -9.2378528242
 H        -6.0468492591        3.3588677079       -9.5677485501
 H        -4.6286358205        1.5906265320       -7.0802118660
 H        -4.8290620028        2.8666533635       -5.9563583027
 H        -4.0775489903        3.1848079702       -7.6881307796
 Na      -11.0685856911        5.9483482874        2.5201913504
