117

 C        -7.7305532525        4.5522418930       -8.0989212395
 C        -6.4487131962        4.0815436341       -7.4621726695
 O        -5.6371811083        4.8596908903       -7.0032127062
 C        -6.2702404287        2.5554747110       -7.3332589078
 C        -7.3766295898        1.9840791626       -6.3396016316
 O        -8.1366720564        1.0600399632       -6.6167968433
 C        -7.4940973809        2.7525933853       -5.0531136020
 C        -8.4939136881        2.0445450696       -4.0725384923
 C        -9.9133503238        1.8601915993       -4.6461512229
 O       -10.5217144656        2.8006482158       -5.1372868733
 C       -10.6419477097        0.4432769878       -4.3253842902
 C       -10.2689603832        0.0050927413       -2.8829281446
 O       -10.3729899948        0.7008995091       -1.8810684170
 C        -9.7940069065       -1.5147202169       -2.6561219018
 C        -9.3248357940       -1.7926785285       -1.2600315037
 C        -8.0304944117       -1.1009109268       -0.7897528551
 O        -7.1895390867       -0.5476020398       -1.4432721932
 C        -7.9244707428       -0.9481486013        0.7688535181
 C        -9.1069831781       -0.1642346303        1.4952882056
 O        -9.9483707162       -0.8050177745        2.0693029197
 C        -9.3285602345        1.3294233032        1.2303925562
 C       -10.7864596142        1.5582188598        0.9017356469
 C       -11.2937087603        2.9600817181        1.3185478227
 O       -10.5465610804        3.9127049391        1.4666079542
 C       -12.8866748080        3.1679262716        1.1917590956
 C       -13.1916470749        4.1105366995        2.3526685511
 O       -13.1536849343        5.3175425721        2.0697729012
 C       -13.6555426940        3.6443264237        3.7070147115
 C       -13.5653015097        4.7376905971        4.7511176816
 C       -12.1359694526        5.1121982195        5.0096914558
 O       -11.2254060217        4.5095942372        4.4252083302
 C       -11.8190256206        6.1227266382        6.0115730917
 C       -11.3483481550        7.4016679195        5.1947402382
 O       -11.6614986954        7.5229274986        4.0476610941
 C       -10.4997322856        8.5485424178        5.8462039120
 C        -9.6125598055        9.1475578758        4.7436834857
 C        -8.8957207205        8.0702327835        3.8245666342
 O        -9.0582928955        6.9099387423        4.1393169253
 C        -8.1468928821        8.5165536933        2.5040386522
 C        -9.3377056153        8.6529518246        1.4574069835
 O       -10.1610263151        7.7884577831        1.2297109355
 C        -9.4143580268        9.8539679268        0.4688742857
 C        -7.3983763168        9.8405912212        2.7873104589
 C        -7.1914267948        7.4760277796        2.0143448467
 C       -12.9880993877        6.7267930415        6.9383612023
 C       -10.8176951882        5.5290295969        7.0081635925
 C       -13.1962593048        3.7356601049       -0.1883809946
 C       -13.7275464327        1.8733843362        1.3702820587
 C        -7.9497716328       -2.4002934400        1.4267940267
 C        -6.6054317093       -0.2839399050        1.1606556204
 C       -12.1577101484        0.4155150627       -4.4765813198
 C       -10.2521711548       -0.5353429080       -5.4635225327
 C        -6.4648852688        1.8633864803       -8.6434919488
 C        -4.8125733692        2.2843196706       -6.8056976130
 H        -8.0556946104        5.4494832115       -7.5321960411
 H        -8.4679447690        3.7119514411       -8.0583584176
 H        -7.5975578564        4.8116248312       -9.0648496500
 H        -7.8018700877        3.7475795205       -5.2651081964
 H        -6.5194947162        2.7982971170       -4.4564675663
 H        -8.6235369102        2.6186737697       -3.1272405530
 H        -8.0973056446        1.0797116227       -3.7362245379
 H        -9.0598974369       -1.7793161406       -3.4554097240
 H       -10.6618032119       -2.2146110189       -2.8025360311
 H        -9.1569689588       -2.9329087945       -1.2240685273
 H       -10.1123654756       -1.6502825786       -0.5519897434
 H        -8.6883333564        1.5850582736        0.3528147424
 H        -9.0835514623        1.8301022520        2.1173827371
 H       -11.4441117847        0.7626892767        1.3622534201
 H       -10.9031962597        1.4285338517       -0.1825361571
 H       -13.1708700559        2.7588402333        4.0367310220
 H       -14.6710765975        3.2851755759        3.5962917959
 H       -14.0362308051        4.3867872083        5.6290417408
 H       -14.2992575594        5.6044368395        4.3705042583
 H        -9.9012448273        8.1638218884        6.6601681358
 H       -11.2119295555        9.2889069027        6.1144789035
 H        -8.8451252341        9.7717260343        5.2174307263
 H       -10.2766503745        9.7562423234        4.1445056246
 H        -8.4351403239        9.8053802819       -0.0650780486
 H        -9.4356200433       10.7049563254        1.1019633877
 H       -10.3145624353        9.6487652900       -0.0751008037
 H        -8.1608126936       10.6146288854        3.0093124213
 H        -6.8798480056       10.2388358388        1.9756434532
 H        -6.7549733294        9.6571596089        3.6204483699
 H        -7.6610609943        6.5033000663        1.9809050293
 H        -6.3645407090        7.2856592446        2.7149387212
 H        -6.7631994845        7.8135239516        1.1090495978
 H       -13.2949103073        5.9492880192        7.6661037020
 H       -13.9902705439        6.8623463041        6.4217055246
 H       -12.7131099668        7.6269202897        7.4024907801
 H        -9.7880753591        5.4934682797        6.6090464602
 H       -11.0209645858        4.4622913778        7.4032462069
 H       -10.7102820361        6.1683137783        7.8891764746
 H       -12.7250419396        3.1654378589       -0.9327038992
 H       -12.9104057955        4.7774023818       -0.4384485479
 H       -14.3201953559        3.7443811400       -0.2092932266
 H       -14.7475458020        2.1216126896        1.0978667595
 H       -13.5340820503        1.5255720238        2.3695175088
 H       -13.3658748860        1.0282062835        0.7538411584
 H        -7.1304072146       -3.0093847743        1.1288027281
 H        -8.9331558311       -2.8286911314        1.1905348389
 H        -7.9438531516       -2.3038301706        2.5474442569
 H        -5.7529631459       -0.4325485649        0.5422726117
 H        -6.3482465533       -0.6524266905        2.0485362183
 H        -6.6573594136        0.8192096755        1.1560511983
 H       -12.5177257928       -0.6012325089       -4.3517735235
 H       -12.4688377881        0.8070859229       -5.4639417672
 H       -12.7067033622        1.0857704792       -3.8156843599
 H       -10.4924702412       -0.1383720835       -6.4399921720
 H       -10.7928393281       -1.4721625776       -5.4916889341
 H        -9.2157690184       -0.8791524144       -5.4722916926
 H        -7.3841234967        2.2176373875       -9.0209141179
 H        -6.2951415732        0.7939933531       -8.4561153910
 H        -5.5622903779        2.1114679994       -9.2072427510
 H        -4.6799073538        1.3306335508       -6.3820557406
 H        -4.7148936453        3.0558612895       -6.0171597361
 H        -4.0162286634        2.4300160043       -7.6038195933
 Na      -11.0250609982        5.9671669749        2.3794876023
