117

 C        -7.2413924292        3.5629332042       -8.5478585286
 C        -6.1856356218        3.4734172623       -7.3889945209
 O        -5.6352118294        4.4764385503       -6.9749815835
 C        -5.8842193068        2.0645272197       -6.7614858150
 C        -7.2326614902        1.6326732933       -6.0440866638
 O        -7.9021860271        0.8148451142       -6.6457092556
 C        -7.5891968831        2.1758093111       -4.6823633339
 C        -8.5621628688        1.2670402473       -3.9566824652
 C       -10.0507825155        1.4829480188       -4.3941649272
 O       -10.4034176744        2.5327578584       -4.8980294280
 C       -11.0562633291        0.2532523907       -4.1793009724
 C       -10.6524635124       -0.4820123817       -2.8999174613
 O       -10.5951350046        0.2256542603       -1.9070646602
 C        -9.9685356471       -1.8549066447       -2.8788777915
 C        -9.5494311411       -2.1894918309       -1.4085089984
 C        -8.4331302466       -1.1801754143       -1.0041535969
 O        -7.7601005938       -0.6009627247       -1.8584257618
 C        -8.1592229598       -1.0366459330        0.5688047099
 C        -9.4466032831       -0.5090168217        1.2617270109
 O       -10.2120773096       -1.2155529468        1.8944153068
 C        -9.7594288179        1.0318488706        1.0314674177
 C       -11.1651354517        1.3969571940        1.2921143387
 C       -11.2806551788        2.9063831180        1.3596047025
 O       -10.3273040709        3.5641067889        1.6336333063
 C       -12.7145122447        3.6463649211        1.2082668148
 C       -12.9225421953        4.7101299676        2.3390307153
 O       -12.6683818049        5.8970109700        2.1350378909
 C       -13.5920659249        4.2371855299        3.5742509400
 C       -13.4570284345        5.2772403634        4.6919825939
 C       -11.8935330719        5.4914600921        5.0961056727
 O       -11.0093788046        4.9437652574        4.4481719121
 C       -11.6293681075        6.5198607492        6.2797569486
 C       -11.2994279358        7.8596067106        5.5048684512
 O       -12.0769670917        8.3018827141        4.7045498310
 C       -10.0142099522        8.7277099236        5.8396903180
 C        -9.4480641075        9.3909780099        4.5862109399
 C        -8.9888999792        8.2903108108        3.5588420483
 O        -9.0027385850        7.1329296859        3.8906005595
 C        -8.4242866350        8.7988598749        2.0405912486
 C        -9.5919353081        8.7254322697        1.0323135665
 O       -10.1312771481        7.6207531718        0.9004890483
 C        -9.9249170775        9.9503231059        0.1089247961
 C        -7.7391753850       10.2021986415        2.2140258402
 C        -7.3909195935        7.8627349874        1.5823578342
 C       -12.8471801688        6.8007569232        7.2317993802
 C       -10.4316861739        6.0387130341        7.1950855542
 C       -12.5440729314        4.3708423593       -0.1228583133
 C       -13.9466101985        2.6376752576        1.1166128923
 C        -7.8711286156       -2.5368046209        1.1310420951
 C        -6.8951277168       -0.1666348104        0.7887727483
 C       -12.3836689205        1.0125914380       -4.0309789527
 C       -11.0063110067       -0.4687850722       -5.5228773531
 C        -5.4925991864        1.0883607247       -7.8247402410
 C        -4.7658507471        2.2111263953       -5.7636023683
 H        -7.5176220653        4.5885348222       -8.6771112352
 H        -8.1595232797        2.9287888346       -8.3706420642
 H        -6.7126852661        3.2490690142       -9.4444979446
 H        -7.9793962716        3.1875908345       -4.7895860184
 H        -6.7308954096        2.3910297929       -3.9733062389
 H        -8.3940418341        1.5144574987       -2.9070367340
 H        -8.2800782346        0.2041337940       -4.1004230514
 H        -9.1312755675       -1.8281520347       -3.6483428137
 H       -10.6383375376       -2.6329394864       -3.2388997910
 H        -9.2048275944       -3.2208621101       -1.4102057760
 H       -10.3711645038       -2.0918482422       -0.7803574352
 H        -9.5760960716        1.1749704786       -0.0905843457
 H        -9.0350923343        1.5909268136        1.5288914108
 H       -11.4148319613        0.9855565282        2.2670497635
 H       -11.9099166940        0.9946827305        0.5264394838
 H       -13.0584656085        3.3820710589        3.9923760304
 H       -14.6913596481        4.0757238731        3.4774576853
 H       -13.9153141997        5.0000797174        5.5454037751
 H       -13.7695639443        6.3103140069        4.4218094569
 H        -9.2216541267        8.1375793787        6.3415079514
 H       -10.3483551268        9.3862361249        6.6352066093
 H        -8.5705205928        9.9506735807        4.7905146065
 H       -10.1045121090       10.1051639956        4.2070688003
 H        -8.9521817074       10.4094178814       -0.1800115542
 H       -10.6024066590       10.4912458391        0.7302025230
 H       -10.3908246766        9.5813726061       -0.8609011609
 H        -8.3991404061       10.9267818708        2.4744985122
 H        -7.2782679393       10.4692659253        1.3259900725
 H        -6.9850815233       10.1880320883        3.0065533846
 H        -7.8879608808        6.8819645321        1.2366720181
 H        -6.6610078765        7.7668973466        2.3332740276
 H        -6.8703587773        8.2110877920        0.6751733254
 H       -13.2471532118        5.9971227706        7.8778831730
 H       -13.6612126227        7.1252627285        6.5097724516
 H       -12.5689403493        7.6347250876        7.8125223062
 H        -9.3907070763        6.0773046227        6.7545402673
 H       -10.7253286170        4.9495117958        7.3629846567
 H       -10.4261106176        6.4956776113        8.1982532866
 H       -12.4262206417        3.5516573358       -0.7929937102
 H       -11.6717795660        5.0920067201       -0.0993737246
 H       -13.4558073434        4.9920260711       -0.4759815064
 H       -14.8727791412        3.1717618884        0.8943860968
 H       -14.1464082338        2.0658216060        2.0443900803
 H       -13.8311108699        1.9022856145        0.2774068174
 H        -7.1352040966       -3.0011811890        0.5398420970
 H        -8.8337854943       -3.0335020057        1.0073082837
 H        -7.7503573681       -2.4799805636        2.2360039840
 H        -6.1240723432       -0.8434528524        0.5444586771
 H        -6.8049290068        0.2475340732        1.8135714936
 H        -6.9547173939        0.7243312456        0.1194332061
 H       -13.1826431235        0.3059623941       -3.8512704074
 H       -12.6178395972        1.6055000042       -4.9482447969
 H       -12.3319905346        1.6826133048       -3.1671363895
 H       -11.5312643509        0.0660051181       -6.3147234520
 H       -11.5295148018       -1.4142966576       -5.5325402098
 H        -9.9875941551       -0.5516671069       -5.9309977657
 H        -5.9882319044        1.1927198059       -8.7255804755
 H        -5.9305712175        0.1211751373       -7.5010375196
 H        -4.3984781502        1.1440796436       -7.9321712554
 H        -4.2763596977        1.3001958242       -5.3734895281
 H        -5.1430020200        2.6773691306       -4.8843392336
 H        -3.8862960087        2.8322431836       -6.1175327101
 Na      -10.3820204483        5.7814155434        2.3321935570
