117

 C        -7.6172696689        4.1107668921       -8.3362903758
 C        -6.3811935735        3.7542373640       -7.4350656966
 O        -5.5223628384        4.5184734445       -7.0485069593
 C        -6.1352337565        2.2832147012       -7.0191356583
 C        -7.4290091969        1.9371615496       -6.0875023195
 O        -8.2570580273        1.1013466371       -6.3621171701
 C        -7.6568278162        2.8715322566       -4.8283623110
 C        -8.4643822769        2.0457681209       -3.7748443881
 C        -9.8437016788        1.7860146040       -4.5026182948
 O       -10.2283653996        2.7044258163       -5.1674574202
 C       -10.6645352625        0.3609276432       -4.3565694255
 C       -10.3270737810       -0.2122098272       -2.9933966926
 O       -10.4633040346        0.5448396454       -2.0119185502
 C        -9.8539929199       -1.6751238414       -2.7463798486
 C        -9.5199120215       -1.9975201284       -1.3154798376
 C        -8.2944101621       -1.2122940458       -0.8162754991
 O        -7.5442964966       -0.7032171618       -1.6529672361
 C        -7.9519053466       -1.1580918787        0.7309180660
 C        -9.2459644149       -0.3521968211        1.2792529433
 O       -10.1050763321       -0.9458725476        1.9249829591
 C        -9.3939629729        1.1523401731        0.8173794897
 C       -10.8715408400        1.4487446247        0.9603903537
 C       -11.3341748301        2.8714611046        1.3101228596
 O       -10.4315762931        3.6948441273        1.4098537720
 C       -12.7999342472        3.2792939495        1.2337182174
 C       -13.0713873668        4.3470500607        2.4024189972
 O       -12.7892309066        5.5304205744        2.2551024442
 C       -13.8020129906        3.8624954684        3.7438497667
 C       -13.5684262473        4.9437052513        4.8047367705
 C       -12.0740048841        5.2279499699        5.0398872833
 O       -11.1940558064        4.6340786265        4.5088851344
 C       -11.7525428187        6.3733066145        6.1452156505
 C       -11.3305748392        7.6402792668        5.3412725567
 O       -12.0159292944        8.0145759481        4.3695902022
 C       -10.2011603580        8.6604556892        5.8823818418
 C        -9.5231903941        9.2646802684        4.6154933183
 C        -9.0991399235        8.2016958336        3.6073581380
 O        -9.0769946892        7.0067633322        3.8905864313
 C        -8.3050670102        8.6794963480        2.3518796616
 C        -9.4085083876        8.7740581137        1.2772450049
 O       -10.1580020295        7.8454296225        1.1360316533
 C        -9.5170048490       10.0042054787        0.3267846433
 C        -7.5040824522        9.9721801698        2.4542240907
 C        -7.3798691860        7.5322919317        1.8764297602
 C       -13.0342508104        6.6833878264        6.9631191502
 C       -10.6340574888        5.7058133242        6.9547096776
 C       -13.0380061988        4.1334443169       -0.1385744927
 C       -13.8133725820        2.1347751711        1.2678980191
 C        -7.8976329544       -2.4955856745        1.4170357307
 C        -6.6185250891       -0.3366202275        0.8975928667
 C       -12.1728594280        0.6858298581       -4.1898129311
 C       -10.3615132725       -0.6451674333       -5.4256626393
 C        -6.1953234569        1.4191027207       -8.2656655523
 C        -4.8608039933        2.1489994138       -6.2545015912
 H        -7.4865311666        5.0875138599       -8.7073086498
 H        -8.4957932136        4.0959283210       -7.7560752677
 H        -7.6865714190        3.3882909814       -9.2488806556
 H        -8.1968185308        3.8351911729       -5.0114186211
 H        -6.6784206829        3.1392977121       -4.4346056363
 H        -8.7898540784        2.6349280999       -2.8882700747
 H        -7.9183631553        1.1658274143       -3.4585255168
 H        -9.0191621141       -1.8446508250       -3.4306904767
 H       -10.6993787173       -2.3384885738       -3.1481063110
 H        -9.4947596090       -3.0605343645       -1.0600266044
 H       -10.3493031386       -1.5345996270       -0.7243158516
 H        -8.9611680639        1.2552041668       -0.1648211802
 H        -8.9481697869        1.7990866126        1.5384428319
 H       -11.3945856948        0.6296787523        1.5879079694
 H       -11.2180891606        1.2635546125       -0.0419078463
 H       -13.3764850412        2.9473133542        4.1590984461
 H       -14.8585545684        3.7046176600        3.6564979325
 H       -14.1694023327        4.7902652659        5.8306148442
 H       -13.9731979353        5.8837735722        4.4153930565
 H        -9.4804630190        8.2765985027        6.5660548325
 H       -10.7272516220        9.4815965052        6.3893802708
 H        -8.6378373405        9.7862034377        4.9740211352
 H       -10.0889336191       10.0599981167        4.1325017736
 H        -8.5495029546       10.0310052723       -0.1026256201
 H        -9.7009610552       10.8693946790        0.9596489406
 H       -10.1786271162        9.6722650134       -0.4928457937
 H        -8.1512938979       10.7879126214        2.5289738068
 H        -6.8602051562       10.0692440447        1.5693203122
 H        -6.8012002216       10.0479213766        3.2820841078
 H        -7.9802675816        6.6344901983        1.6496338142
 H        -6.6292555779        7.2594959894        2.5450105263
 H        -6.9493561451        7.8203567038        0.9082601896
 H       -13.2810812209        5.8536511819        7.6470318394
 H       -13.8387555222        7.0018774736        6.3135232516
 H       -12.8771614438        7.5406379275        7.6931747630
 H        -9.6046269534        5.9271380467        6.5727569640
 H       -10.7237028512        4.6436084613        6.9966830766
 H       -10.6072517776        6.1384449748        7.9931873093
 H       -13.0217924424        3.6356963237       -1.1449533146
 H       -12.2514278311        4.8689058135       -0.0994874289
 H       -14.0104620213        4.5512413203       -0.0970053613
 H       -14.8340642775        2.4697610260        0.9540648539
 H       -13.8744100796        1.6395007842        2.2752120076
 H       -13.3984610556        1.4654344373        0.4907694267
 H        -7.2846132773       -3.2171816129        0.8382704550
 H        -8.9011115993       -2.8664370952        1.4955547366
 H        -7.3785325900       -2.3017730229        2.3556071074
 H        -5.7599118375       -0.9189340111        0.7750549494
 H        -6.6088616812        0.1632722809        1.8986176722
 H        -6.5404819462        0.3827044992        0.1642987625
 H       -12.8954718513       -0.1065802402       -3.8817613118
 H       -12.5066956231        1.0397295986       -5.1642934734
 H       -12.2902888484        1.4687562010       -3.4733294672
 H       -10.3448376032       -0.2497377431       -6.4508692301
 H       -11.0559274565       -1.4715767465       -5.4432271094
 H        -9.4022879503       -1.1394738756       -5.3325097718
 H        -7.3048667512        1.2322968507       -8.4584171000
 H        -5.6191021762        0.5143414679       -8.0609214006
 H        -5.8294943832        2.0196149204       -9.1094007282
 H        -4.7431648325        1.0035901333       -6.0922673745
 H        -4.7744408674        2.6827454129       -5.3366543263
 H        -4.0101630053        2.4774764896       -6.8266082823
 Na      -10.5726214822        5.9281562023        2.3798741957
