117

 C        -7.6035648704        4.2296466796       -8.2452355599
 C        -6.3733354313        3.8376158873       -7.4612539358
 O        -5.6146084434        4.7090993335       -7.0718694792
 C        -6.2559789204        2.2890417591       -7.0843897481
 C        -7.4040796125        2.0018303308       -6.0696397016
 O        -8.1806678282        1.0968453495       -6.3364040513
 C        -7.5534651540        2.8334607688       -4.8387528227
 C        -8.4175378610        2.0140125638       -3.9083347090
 C        -9.8260966374        1.8314537906       -4.5880355483
 O       -10.3756346373        2.7582860903       -5.1253938915
 C       -10.5529478726        0.4232516307       -4.3564016243
 C       -10.2198098939       -0.0978776389       -2.9674241853
 O       -10.4209776464        0.5886512590       -1.9521189881
 C        -9.7983187855       -1.5810573164       -2.7259100327
 C        -9.5870215684       -1.8590308720       -1.2471255735
 C        -8.2419233612       -1.2251553256       -0.8163790789
 O        -7.4965753351       -0.6552956756       -1.5884985976
 C        -7.9545118490       -1.1075939662        0.7640088556
 C        -9.1849616321       -0.3401254156        1.3232053510
 O       -10.0744262340       -0.9180177056        1.8836736227
 C        -9.3751603527        1.0803350238        0.8497510251
 C       -10.8716334876        1.5469218192        0.8461596690
 C       -11.1835303101        2.9779776592        1.2189021669
 O       -10.3811143193        3.8168005606        1.4611624638
 C       -12.8586591502        3.2785298366        1.2546144245
 C       -13.2282919540        4.2515305606        2.3707952072
 O       -12.9478865141        5.4480436609        2.2032033416
 C       -13.7757905051        3.7984178701        3.6313232098
 C       -13.5742813151        4.8489033567        4.8150428114
 C       -12.0738028952        5.2145975378        5.0624639633
 O       -11.2143902062        4.6128412536        4.4565706899
 C       -11.7595438013        6.2926035357        6.1337434367
 C       -11.4325300918        7.6873042485        5.2861602626
 O       -11.9567777152        7.9577973450        4.2524915026
 C       -10.3013953187        8.6056578440        5.8041576804
 C        -9.3980486658        9.2256215217        4.7312429788
 C        -8.9140584978        8.1806905843        3.7705554442
 O        -9.1949617972        7.0030864223        4.0172921571
 C        -8.3378776263        8.6148799198        2.3027567634
 C        -9.4221419501        8.7633373627        1.2151311231
 O       -10.2735729779        7.8822803954        1.0210545687
 C        -9.4319876213       10.0496808769        0.3171760136
 C        -7.4940686701        9.9522919231        2.5150230251
 C        -7.3116403718        7.4890755495        1.8902249463
 C       -12.9554680990        6.6567977362        7.0257980240
 C       -10.6481447282        5.7108340596        7.0228005251
 C       -13.0954438364        3.9605884215       -0.1106731427
 C       -13.7701208034        1.9931905945        1.2665582281
 C        -7.8810461101       -2.5034751557        1.4265490783
 C        -6.7092925184       -0.3217264295        0.9621171598
 C       -12.1201787878        0.6131049282       -4.3295956931
 C       -10.3647606911       -0.6615872962       -5.4420533225
 C        -6.3594796901        1.3423737569       -8.3441996047
 C        -4.9571999664        2.0955935621       -6.2728705528
 H        -7.5511453945        5.2842474285       -8.4654615682
 H        -8.4349581889        4.0923528272       -7.5157972182
 H        -7.7723820327        3.6640646485       -9.1000521835
 H        -8.0961834201        3.7121413871       -5.0353996245
 H        -6.5936699071        3.1664507342       -4.3358626223
 H        -8.6200126135        2.6517767350       -3.0208632902
 H        -7.9805281488        1.0807904231       -3.5858732124
 H        -8.9172654180       -1.8373920234       -3.3215089342
 H       -10.6047950949       -2.2080631688       -3.1305848074
 H        -9.6796832500       -3.0036949525       -1.0462151948
 H       -10.3380667854       -1.3534642571       -0.6408420586
 H        -8.8778475363        1.0720642834       -0.2090855533
 H        -8.8820059552        1.7970965989        1.4974060521
 H       -11.4825597335        0.9285584935        1.5368298187
 H       -11.2507543462        1.3374239756       -0.1322005371
 H       -13.3717877873        2.8618896553        3.9481427906
 H       -14.8346203815        3.5846976378        3.5052672985
 H       -13.9281404292        4.4192917710        5.7083119176
 H       -14.2508570500        5.7873517333        4.6904502169
 H        -9.6664177499        8.0382690858        6.4877855969
 H       -10.7354496207        9.4415537894        6.3529986775
 H        -8.6002672919        9.7829330517        5.3163878930
 H        -9.9200646891       10.0290544839        4.1315624965
 H        -8.4413578638       10.3859454711        0.0504379397
 H        -9.8904586749       10.7004385277        0.9825789644
 H        -9.9996150125        9.7193711316       -0.5522737624
 H        -8.1541689049       10.8595687639        2.5088311058
 H        -6.6358426388       10.1165141474        1.8517149878
 H        -6.9891430590        9.9331171121        3.5761689722
 H        -7.8006177888        6.5342556978        1.6175762471
 H        -6.6481438282        7.2402672890        2.6514313978
 H        -6.7967744205        7.8289955431        1.0336931708
 H       -13.3808083750        5.7227715296        7.4708677031
 H       -13.7346841291        7.2247785676        6.4202547432
 H       -12.7058349592        7.2496423676        7.8701802719
 H        -9.6407226344        5.6930142264        6.7062733854
 H       -10.8583096446        4.7391057391        7.4368263616
 H       -10.6836908324        6.4015855569        7.7967471458
 H       -12.9291926420        3.2970877623       -0.8822955401
 H       -12.3719248663        4.7339256265       -0.2772348997
 H       -14.1296274703        4.2961644720       -0.2050521225
 H       -14.8168727322        2.2250756029        0.9620471843
 H       -13.7796260249        1.5748150363        2.3132483909
 H       -13.3090414355        1.2329891766        0.5529730020
 H        -7.2402088922       -3.1264477474        0.8500385479
 H        -8.8888284043       -2.8700136964        1.3220891375
 H        -7.4504223819       -2.4672619072        2.4626628803
 H        -5.8284116653       -0.8968270398        0.8930744740
 H        -6.7307943375        0.1387530849        1.9180792250
 H        -6.5161108704        0.4219895020        0.1351076833
 H       -12.6159568228       -0.3604857129       -4.2325239849
 H       -12.4563581489        1.0042403180       -5.3117435052
 H       -12.5273569563        1.2083324044       -3.5430502681
 H       -10.5161101911       -0.2410756689       -6.4433511057
 H       -11.0914121276       -1.4505083036       -5.3822970679
 H        -9.4455708162       -1.2414008710       -5.4886254888
 H        -7.3403510525        1.3994020353       -8.8185481561
 H        -6.0335780503        0.3400362689       -7.8970844385
 H        -5.5771957502        1.7167717952       -9.0916306611
 H        -4.7224011078        1.0272538492       -6.2177033380
 H        -5.0341643518        2.5074180145       -5.3128330241
 H        -4.0869218389        2.6128908383       -6.7102253344
 Na      -10.5177768736        5.8974379452        2.4649893954
