117

 C       -14.5217748619        2.4836360714       -1.7728418229
 C       -13.1791545068        2.6183442606       -1.0930647221
 O       -12.1825107097        2.2720892133       -1.6909642154
 C       -13.1813419951        3.2049163729        0.3668163071
 C       -12.0408273945        2.7157267577        1.3687178211
 O       -10.8683090482        2.8289869892        1.0386044810
 C       -12.2760593373        1.7699940834        2.6196942104
 C       -11.0219349604        1.0851440757        3.2956375859
 C       -11.5523733367       -0.4267187890        3.5301101957
 O       -12.6044125689       -0.7495993985        4.0977850758
 C       -10.6790688516       -1.5748064402        2.9511308888
 C       -10.2986193796       -1.4329307774        1.4077868523
 O       -10.1408016007       -0.3219879749        0.9699851664
 C       -10.1759924119       -2.8067942586        0.5440799097
 C        -9.8481891814       -2.7106295823       -0.9266804657
 C       -10.4937103343       -1.7476131750       -1.9163142815
 O       -11.1266545364       -0.7608659634       -1.6163981780
 C       -10.1745590398       -2.1536726166       -3.4162168161
 C        -8.7555478920       -1.3791546996       -3.5394655761
 O        -7.7651151139       -1.7414358660       -2.9806155835
 C        -8.4912349612       -0.2326529067       -4.6394615400
 C        -7.4989896464        0.6989394363       -4.0523880673
 C        -7.8828429916        1.3287352937       -2.7993345159
 O        -9.0150678916        1.2539955702       -2.3518066813
 C        -6.9342440788        2.1503490711       -1.9843341242
 C        -7.5294931935        3.7077836056       -1.9281701088
 O        -8.5402233088        3.8157601300       -1.3381837183
 C        -6.5882444208        5.0238786715       -2.1069103289
 C        -7.2459100422        6.3435897796       -1.6963932598
 C        -6.5688882853        6.7122859917       -0.2485650943
 O        -5.3483278965        6.6570836990       -0.3548086967
 C        -7.5516221110        7.0113078446        0.8974776737
 C        -8.3883835071        8.2644005070        0.5452798700
 O        -9.3489682849        7.9833273246       -0.1251159799
 C        -7.7736693206        9.7900638297        0.7361196903
 C        -8.6712494338       10.8828644237        0.1361013519
 C        -9.7063741691       11.2817858727        1.2064155193
 O        -9.4678093222       11.0579761267        2.3874174939
 C       -10.9576962078       12.0957451631        0.8843898299
 C       -11.9622633707       11.1279833537       -0.0074429565
 O       -12.6666087111       11.5150962970       -0.9470483801
 C       -11.7226226968        9.6769992425        0.1464153541
 C       -11.7710385820       12.2345446346        2.2355759389
 C       -10.7966502963       13.4088357879        0.1628934922
 C        -8.4965009240        5.8493554480        1.2572231836
 C        -6.6236164638        7.2615049164        2.1773763843
 C        -7.0483815050        1.5723949427       -0.5787636934
 C        -5.4046454425        2.0432548712       -2.4548878813
 C        -9.7431044923       -3.6148288405       -3.7708804100
 C       -11.2105711648       -1.5726507706       -4.4345389562
 C        -9.3754448544       -1.8113658676        3.9216122829
 C       -11.5344719673       -2.9272310303        3.1849673784
 C       -12.7490919317        4.7091969074        0.1238837362
 C       -14.6142386994        3.1239920677        1.0492578058
 H       -14.6909731700        1.4667859636       -1.5640337810
 H       -14.5024339100        2.4628260476       -2.8737734705
 H       -15.1751818260        3.2501387736       -1.3933521963
 H       -12.9120700430        0.9483566247        2.1956452344
 H       -12.9208514840        2.3326249525        3.3741103737
 H       -10.6313097169        1.4164405461        4.2633577456
 H       -10.1363037245        0.9898107124        2.6770446389
 H       -11.1447683309       -3.4112770689        0.4667132769
 H        -9.5342265549       -3.6410536560        0.9821125242
 H        -9.7517652185       -3.7497975324       -1.3223964298
 H        -8.8168625890       -2.2226316433       -0.9229160726
 H        -9.5569141753        0.1574531286       -4.8447838263
 H        -8.1502930496       -0.7928736412       -5.5357235299
 H        -7.1686882884        1.5969982856       -4.6822384162
 H        -6.4614763752        0.1519866154       -4.0568293129
 H        -6.3789714612        5.0840483475       -3.1699829457
 H        -5.7852203462        5.1012689355       -1.5025440716
 H        -8.3479757023        6.3799856997       -1.7005465813
 H        -6.7851832289        7.1603025859       -2.3060464785
 H        -6.7850577150        9.5202109258        0.3833240833
 H        -7.7320228876       10.0087803516        1.8559688518
 H        -9.1793106639       10.6176745403       -0.8366392495
 H        -8.0874307200       11.7453172402       -0.0635367074
 H       -11.5674510227        9.2551012146       -0.7922729212
 H       -12.6957720249        9.1037377808        0.4001910525
 H       -10.9814395600        9.3424711800        0.8064553847
 H       -12.7749250939       12.6635698676        2.3111583346
 H       -11.2056217829       12.7358802776        3.0505541443
 H       -11.9906494879       11.2016531048        2.5718542271
 H       -11.5944421136       13.4428088491       -0.6633067107
 H        -9.7469338740       13.5516455815       -0.2974596788
 H       -10.9070837925       14.2464404498        0.9626049973
 H        -8.5967109092        5.8674095667        2.3142189774
 H        -7.9082280581        4.8878029386        1.1510293503
 H        -9.3913358528        5.7124216800        0.8444208926
 H        -6.9817708181        7.6391466141        3.1743604282
 H        -5.9445467721        8.1047336497        1.8393599660
 H        -6.0288475901        6.3539977759        2.3174770769
 H        -6.3197167462        0.7399269850       -0.6248249386
 H        -8.0343258286        1.1805366036       -0.4049575189
 H        -6.7575462290        2.2418495872        0.2930005142
 H        -4.8169417049        2.8260659210       -1.9988728966
 H        -5.4468987589        2.1549897960       -3.5024352848
 H        -4.9216862849        1.1498229596       -2.1626916737
 H        -9.1109761041       -4.0562276092       -3.0471692101
 H        -9.3599554221       -3.5210119383       -4.8366115002
 H       -10.6757727957       -4.1313186796       -3.8463813379
 H       -10.8938459504       -1.3004947476       -5.4779676512
 H       -11.7149569841       -0.7129601473       -4.0214890504
 H       -12.0316812498       -2.2745674152       -4.4731159299
 H        -9.1946109104       -0.8436925581        4.4440206999
 H        -8.4499571500       -2.1696453271        3.4563013549
 H        -9.6549640430       -2.4356304071        4.7521910118
 H       -12.0354197616       -2.8261105058        4.1610109696
 H       -10.8593984888       -3.7094505600        3.3070584879
 H       -12.3617524317       -3.1266121448        2.4052795645
 H       -12.3967290239        4.8617507166       -0.8801140803
 H       -11.8479453185        4.9488007243        0.7671849127
 H       -13.5897397531        5.3928838014        0.2106164224
 H       -14.5043513752        3.2887166250        2.1025912006
 H       -14.9480774892        2.1801770280        0.7728491002
 H       -15.3321165614        3.9433532581        0.8087215708
 Na      -10.1826669504        1.6419087680       -0.5659457976
