117

 C        -7.3061946823        3.7886822980       -8.4831153583
 C        -6.2094655323        3.6158382700       -7.4461594793
 O        -5.5366066207        4.5290589371       -7.0369836901
 C        -5.9777226287        2.1889261329       -6.8637057747
 C        -7.1930980196        1.6922489340       -6.0593050358
 O        -8.1245493594        1.0256883800       -6.4882706177
 C        -7.4397086149        2.3237470135       -4.6525142472
 C        -8.5882850546        1.6363547245       -3.8471472697
 C        -9.9293653376        1.6643145307       -4.5287834901
 O       -10.3388438696        2.5840750842       -5.1747461914
 C       -10.9361953804        0.2842804767       -4.1277086929
 C       -10.4764522700       -0.3015902835       -2.8563467824
 O       -10.5570202392        0.3367130320       -1.7912507030
 C       -10.0505065540       -1.7848558822       -2.8783157154
 C        -9.4803800393       -2.2152202401       -1.5637834998
 C        -8.3561602653       -1.3133352827       -1.0594464664
 O        -7.6254257112       -0.6794347820       -1.7764146741
 C        -8.1852641890       -1.1268088282        0.5119730280
 C        -9.3792252130       -0.4742269827        1.2730340890
 O       -10.0166168831       -1.1524338693        2.0514366296
 C        -9.6255769043        1.0695722892        1.0071435205
 C       -11.1196635819        1.4609672169        1.1904577417
 C       -11.3518366610        2.9552998369        1.3210387892
 O       -10.3632229024        3.6696096652        1.5335964575
 C       -12.8041351188        3.5707339225        1.1300488196
 C       -13.0523210416        4.6522643040        2.3605625903
 O       -12.8648567974        5.8316970381        2.1580876460
 C       -13.7067403394        4.1746259545        3.6543899558
 C       -13.5642669425        5.1372294983        4.8476090399
 C       -12.0264135672        5.4511345877        5.1890146078
 O       -11.1315841477        4.8687447655        4.6287673057
 C       -11.6921440363        6.5308354900        6.3259208837
 C       -11.3632614379        7.8023043608        5.4496670407
 O       -12.1432872879        8.1232837996        4.5618790911
 C       -10.1499880618        8.6914731829        5.7695104185
 C        -9.4130238464        9.2814540133        4.5530757354
 C        -8.9203427187        8.2552060048        3.5217631816
 O        -9.1397518788        7.0561696789        3.6500257379
 C        -8.2622954727        8.7835295430        2.1515879190
 C        -9.5684749669        8.7516503941        1.0734726686
 O       -10.2365552017        7.7700738090        0.9248101795
 C        -9.7453139727       10.0081156924        0.2656467006
 C        -7.6841653639       10.2070070160        2.3187194655
 C        -7.3087592640        7.6410805470        1.7206786871
 C       -12.8752219343        6.8584339494        7.2734482594
 C       -10.4453824463        5.8842305842        7.1602842115
 C       -12.7351504041        4.3619302305       -0.2052909671
 C       -13.8980825889        2.4793584348        1.0872742312
 C        -7.8716518704       -2.5664652897        1.0519208510
 C        -6.9372058564       -0.2368126205        0.7650270778
 C       -12.4719247512        0.6194786595       -3.9138733966
 C       -10.7763741356       -0.6463120833       -5.3202161946
 C        -5.6775489707        1.1253793404       -8.0372885289
 C        -4.6776783962        2.2536634566       -5.9898100235
 H        -7.3153515845        4.7853391202       -8.8953634571
 H        -8.2018069474        3.6217599158       -7.9756364850
 H        -7.1693213410        3.0487953319       -9.3307527685
 H        -7.6437332430        3.4108990580       -4.7698007253
 H        -6.5697767888        2.3442689267       -4.0387961910
 H        -8.7706010697        2.1734337251       -2.8902848048
 H        -8.3206773094        0.6204470059       -3.5899709256
 H        -9.3028996956       -1.8357852802       -3.6496405784
 H       -10.8587217550       -2.4889539288       -3.2218230357
 H        -9.2180407579       -3.2877897952       -1.6181790334
 H       -10.3008294964       -2.0989443748       -0.7658147616
 H        -9.2909276076        1.2732719144        0.0388607824
 H        -8.9331150750        1.5510574508        1.7558212302
 H       -11.5134331094        0.9566929891        2.1218545792
 H       -11.6767116442        1.0632188866        0.3744533918
 H       -13.2895649890        3.2412792025        4.0030555605
 H       -14.7510689324        4.1055504008        3.4836599600
 H       -13.9061952047        4.6483565938        5.9017682698
 H       -14.1158938144        6.0655998741        4.7408884837
 H        -9.4927438667        8.1394822629        6.4034703364
 H       -10.5152032137        9.4655493304        6.4562842932
 H        -8.5770078594        9.9796920687        4.8221939468
 H       -10.1154812428       10.0089287092        4.0266182754
 H        -9.0449145012        9.8495185662       -0.4950320370
 H        -9.6221989426       10.8748199018        0.9335468947
 H       -10.6653584633        9.8890696423       -0.2395375707
 H        -8.3973066269       11.0843036435        2.4264506202
 H        -6.8940403845       10.3956303462        1.4863468093
 H        -7.1315608513       10.3098831745        3.2480304245
 H        -7.8471289612        6.7859125964        1.5303854140
 H        -6.4974782997        7.5480645934        2.4387259472
 H        -6.8554359146        7.8174611807        0.7714303374
 H       -13.2257555609        5.8652197366        7.5723646091
 H       -13.6528689143        7.3084007692        6.7153382348
 H       -12.6588127008        7.3961917960        8.2595519773
 H        -9.8957764728        5.3321565475        6.4475550686
 H       -10.7366294181        5.2361258621        7.8999686517
 H        -9.7537350480        6.6026023962        7.5536345448
 H       -12.5476194775        3.8008563532       -1.1463769189
 H       -12.0798452619        5.1374108976        0.0173733340
 H       -13.6646026425        4.7626539247       -0.3916298615
 H       -14.8805119369        2.9251547556        0.7882375632
 H       -14.1009778780        1.8940279918        2.0182808058
 H       -13.6528132621        1.8434956434        0.2269692946
 H        -6.8594407718       -2.7230829225        0.6198140380
 H        -8.5294155075       -3.3432808969        0.6892715592
 H        -7.8741368785       -2.5072469153        2.1160935607
 H        -6.1269742096       -0.4576012050        0.0895437052
 H        -6.6277676636       -0.2429772441        1.8302011691
 H        -7.2608980017        0.7214492696        0.7014492142
 H       -13.1513063242       -0.2376617162       -4.1074144586
 H       -12.7448159039        1.3853596020       -4.6090575011
 H       -12.6670333760        0.9252232615       -2.8960432437
 H       -11.0666754869       -0.2180104119       -6.2790094545
 H       -11.4197712660       -1.5148945619       -5.2106268400
 H        -9.7708926295       -0.9363095268       -5.5653354247
 H        -6.5218049692        1.1468215747       -8.8155444055
 H        -5.8724848188        0.1251524430       -7.6803435478
 H        -4.7221834190        1.4153054678       -8.5004990347
 H        -4.6339317767        1.3169674172       -5.4020170760
 H        -4.6034849798        3.0484920955       -5.2463413110
 H        -3.8008828660        2.2587202573       -6.5576157694
 Na      -10.2255735507        5.7678104543        2.3781428822
