117

 C        -7.4476524196        3.9654357579       -8.4066022571
 C        -6.2372910498        3.7271106936       -7.4951568734
 O        -5.5251175207        4.6164338751       -7.0823086185
 C        -6.0132663826        2.2712656520       -6.9904579279
 C        -7.3187664276        1.8530534028       -6.0278859411
 O        -8.1556323833        1.0909815982       -6.4672869603
 C        -7.5081122158        2.5046123032       -4.6663173844
 C        -8.6150619112        1.9130053410       -3.8803155279
 C        -9.9693729823        1.6904389253       -4.5131046369
 O       -10.4750939194        2.4756934623       -5.2798310752
 C       -10.7590416812        0.3799545772       -4.1544893815
 C       -10.3687268777       -0.3022052981       -2.7710945833
 O       -10.4720966795        0.3574838456       -1.7657747635
 C        -9.9667424626       -1.8097242595       -2.7852777220
 C        -9.4526081375       -2.2256820036       -1.4032249896
 C        -8.2338523085       -1.3529501714       -0.9575372049
 O        -7.5827257694       -0.7382713373       -1.7631195757
 C        -8.0252768487       -1.1066010547        0.5989998125
 C        -9.2978636348       -0.3982029640        1.3052383695
 O       -10.0129569736       -1.0454301976        2.0280696909
 C        -9.5672605862        1.1310223379        1.0043763766
 C       -11.0957558909        1.4474978743        1.0701790443
 C       -11.3669490210        2.9121149312        1.3850410305
 O       -10.3986945182        3.6286497495        1.4534852690
 C       -12.7965358986        3.4791416987        1.1611066305
 C       -13.0209249652        4.4769431852        2.3911652868
 O       -12.6646108961        5.6276720226        2.2700900944
 C       -13.6825814573        3.9727503418        3.6729126221
 C       -13.6215033670        5.0840663131        4.7619272259
 C       -12.1048266008        5.3376813859        5.1294495999
 O       -11.2193844957        4.7356128802        4.4983453377
 C       -11.6765160872        6.4108479922        6.1949292591
 C       -11.3295216054        7.7177812322        5.3347382586
 O       -12.0962417808        8.0721487082        4.4932859212
 C       -10.1192400289        8.5211612816        5.7524809556
 C        -9.6143965016        9.2977379570        4.5604576229
 C        -9.0287258575        8.2748306028        3.5981478897
 O        -9.1642508258        7.0899654311        3.8627339671
 C        -8.2689338839        8.7376400229        2.3070371071
 C        -9.4761392305        8.7481669924        1.2313238559
 O       -10.2523303016        7.7970431061        1.0574921273
 C        -9.6572549360        9.9634353084        0.2844585405
 C        -7.5123071157       10.0819397239        2.3991724254
 C        -7.2298413072        7.5969282856        1.7485844504
 C       -12.9124493632        6.8490435385        7.1895020044
 C       -10.5277312292        5.9161348526        7.0736471706
 C       -12.8687617273        4.3635208948       -0.1475666567
 C       -13.9220803441        2.3655245916        1.1845259548
 C        -7.9132637293       -2.4923389742        1.2276518214
 C        -6.7366991073       -0.3180403079        0.8005571276
 C       -12.2181997990        0.8472616852       -4.2345259187
 C       -10.5330016286       -0.4757559479       -5.4069520501
 C        -6.0290149143        1.1984352643       -8.1230712702
 C        -4.7270037040        2.0848287550       -6.0855492816
 H        -7.3983674923        4.9687670294       -8.8934030705
 H        -8.3909809970        3.9407248782       -7.7702858105
 H        -7.4550043471        3.2504476838       -9.1358688306
 H        -7.7754332926        3.5331231701       -4.9085163442
 H        -6.5549345616        2.6042456548       -4.0873811431
 H        -8.9152098434        2.4887947348       -3.0081618356
 H        -8.2728157971        0.9266585942       -3.5179177450
 H        -9.3260848563       -2.0992409313       -3.6317344860
 H       -10.9128286625       -2.2185474248       -3.0238458838
 H        -9.0365987012       -3.2429991615       -1.4020025070
 H       -10.2320253843       -2.2215449813       -0.6933345855
 H        -9.1096591308        1.3281038516       -0.0291377908
 H        -9.0723256953        1.7578869263        1.7574407300
 H       -11.6005240523        0.8778878447        1.8013916184
 H       -11.5950084536        1.1817164495        0.0918626089
 H       -13.1850244880        3.0624315021        4.0704884633
 H       -14.7843727351        3.7656555102        3.5028419113
 H       -14.1336245614        4.9568084532        5.6155123069
 H       -13.9839475336        6.0335859857        4.2933238508
 H        -9.3109570970        7.9229440673        6.2518879066
 H       -10.4337647900        9.2196411849        6.5427326216
 H        -8.9523464688       10.0945934791        4.8972898379
 H       -10.4041372556        9.8527442637        4.0730872491
 H        -8.9845861828        9.8267483381       -0.6056436101
 H        -9.4591848170       10.7936498238        0.9264452049
 H       -10.6392106068        9.8287269518       -0.1377239215
 H        -7.9636247391       10.7803660279        3.0948092798
 H        -7.3290747477       10.5005643302        1.4747720928
 H        -6.5070854993        9.9561773916        2.8653574571
 H        -7.6076003660        6.5425017363        1.6387847771
 H        -6.3596848270        7.6630502947        2.4513870420
 H        -6.8275915617        7.8234210490        0.7415687118
 H       -13.2710911799        6.0677077147        7.8333410466
 H       -13.7091117595        7.3670726819        6.6274039138
 H       -12.5534911647        7.5421651646        7.8760308298
 H        -9.6310261878        5.6627712255        6.4814041815
 H       -10.8107486421        4.9261552220        7.5776638604
 H       -10.1833436103        6.6427953476        7.8053644164
 H       -12.7535764614        3.7098753831       -0.9878554168
 H       -12.1041780067        5.1919095935       -0.1852162498
 H       -13.9502946203        4.6213250278       -0.3807218380
 H       -14.7897774288        2.8046815338        1.5849748505
 H       -13.6570581859        1.7112354032        1.9473718875
 H       -14.1904361376        1.9098509631        0.2612732498
 H        -7.1930989826       -3.0868573293        0.7055200616
 H        -8.9049428543       -2.9471366894        1.0965107960
 H        -7.6429416863       -2.3302135423        2.2791428643
 H        -5.9715635125       -0.9189614056        0.2194361394
 H        -6.4863567701       -0.3436000055        1.8421990378
 H        -6.6951497954        0.8345093825        0.5257170553
 H       -12.9020747198        0.0279689678       -4.1537822831
 H       -12.3859837067        1.2782868376       -5.2360540149
 H       -12.5223032828        1.5399593020       -3.4253069144
 H       -10.8577381963        0.0909252464       -6.2691043049
 H       -11.0136021931       -1.4576916375       -5.4950075636
 H        -9.4846914865       -0.5939491686       -5.7055769667
 H        -6.9731680248        0.7516253024       -8.2178195401
 H        -5.4257420665        0.3747277071       -7.7456876515
 H        -5.7397869608        1.6592419195       -9.0357516305
 H        -4.7354612996        1.2466342909       -5.4461429826
 H        -4.6124458748        2.9978092066       -5.4557423459
 H        -3.7770950343        2.0834275048       -6.6768677972
 Na      -10.5285460689        5.8276053734        2.2898736987
