117

 C        -7.4476684511        4.0116617838       -8.3266413564
 C        -6.3152881916        3.7432109563       -7.4314019178
 O        -5.5350772614        4.6032784182       -7.1144566540
 C        -6.1743635459        2.1925136907       -6.9108718840
 C        -7.3818796967        1.8996479063       -6.0537397638
 O        -8.2433962707        1.1136888608       -6.4048342961
 C        -7.6093954823        2.6775629285       -4.7436973958
 C        -8.5592295412        2.0125515558       -3.7469688208
 C        -9.8659292856        1.6994379840       -4.4832095693
 O       -10.4070361315        2.4977340473       -5.2306640246
 C       -10.6845193725        0.3763482461       -4.3100211550
 C       -10.3758286719       -0.2496534209       -2.8601690976
 O       -10.4499690014        0.4361341785       -1.8748313977
 C        -9.9542265370       -1.7434894482       -2.7173287989
 C        -9.4978521259       -2.0996243344       -1.3413627421
 C        -8.2735767283       -1.2744972349       -0.8890897940
 O        -7.5738701718       -0.7370664634       -1.6961920200
 C        -8.0266020822       -1.1433460471        0.6674914791
 C        -9.2197440146       -0.3295090316        1.2114945848
 O        -9.9973766298       -0.9305397443        1.9214871653
 C        -9.5482968683        1.1180786707        0.9577821013
 C       -11.0644825456        1.3483066899        0.9923148959
 C       -11.3515317524        2.9149906432        1.1628451350
 O       -10.4196040546        3.6915836013        1.4893742644
 C       -12.8385126988        3.4126328978        1.2436485007
 C       -12.9962239074        4.3675848197        2.3754668103
 O       -12.6820790630        5.5195148104        2.3246601261
 C       -13.6872804814        3.9732130228        3.6622686065
 C       -13.5907284976        5.0318060370        4.7005038963
 C       -12.1425461938        5.3275712974        5.0563038753
 O       -11.2237378532        4.6858196237        4.5204104029
 C       -11.7201186260        6.3852077051        6.1731197852
 C       -11.3523437637        7.7007739334        5.4223171768
 O       -12.0365557442        8.0116070497        4.4676752785
 C       -10.2023223980        8.5926344025        5.8720585493
 C        -9.5993229299        9.2865876416        4.5913858289
 C        -8.8495170363        8.2519455204        3.6385208236
 O        -9.1316642596        7.0835239158        3.7879464058
 C        -8.2562912099        8.7440166010        2.3143685558
 C        -9.4526215727        8.7124963818        1.2307335714
 O       -10.2190887357        7.7846014835        1.1121618909
 C        -9.6122319247        9.9593510528        0.3066182645
 C        -7.4975528831       10.0302657196        2.4713981916
 C        -7.3779873862        7.5598782386        1.8211014064
 C       -12.9622389688        6.7490486636        6.9575961964
 C       -10.5570186946        5.8231755279        7.0147077785
 C       -12.9079019078        4.2517680134       -0.0305758089
 C       -13.8669071311        2.2732492528        1.2622242797
 C        -7.9065578482       -2.5209159940        1.3664251025
 C        -6.6503714814       -0.3422248617        0.8676813483
 C       -12.1767802277        0.8607312197       -4.2176021202
 C       -10.3883970572       -0.5214547410       -5.5229969234
 C        -6.0877369959        1.3050003471       -8.2535987774
 C        -4.7965975521        2.1129998399       -6.2056647899
 H        -7.3091122506        5.0054638105       -8.8169603696
 H        -8.3729048685        4.0151225218       -7.7729854093
 H        -7.4267444807        3.2428977297       -9.1059418067
 H        -8.1465058556        3.6504700017       -5.0699478424
 H        -6.6822082101        3.0039669000       -4.3215995860
 H        -8.8632701937        2.5451716462       -2.8612675963
 H        -8.1292583574        1.0255140781       -3.4652853360
 H        -9.0499075044       -1.8307817175       -3.3662427527
 H       -10.7091073828       -2.3753535925       -3.2157458383
 H        -9.1127006876       -3.0649769238       -1.3656083809
 H       -10.2901072649       -2.1347071535       -0.5816331950
 H        -9.1365049073        1.3987376569        0.0778402929
 H        -9.2118871738        1.7578011637        1.7860156683
 H       -11.5609605224        0.8986873120        1.8790521433
 H       -11.4661916348        0.8182147065        0.0718236922
 H       -13.2770710906        3.0708656273        4.1761112237
 H       -14.7788872147        3.8183137267        3.5655496774
 H       -14.1140241300        4.7488584869        5.6853409665
 H       -14.0423265533        5.9457722083        4.3803466516
 H        -9.4153168820        8.0130022153        6.3695035828
 H       -10.5048168533        9.3310367542        6.6232916143
 H        -9.1710278779       10.1839728620        4.9202390554
 H       -10.3548608810        9.6046522736        3.9161812811
 H        -8.7202138359        9.8341209859       -0.3457610498
 H        -9.4892606349       10.8136396141        1.0329411716
 H       -10.4312106185        9.8090761995       -0.3400031232
 H        -8.0926503905       10.7636159284        2.9572357423
 H        -7.1471416171       10.3513518522        1.5272350806
 H        -6.6778567702        9.9573998590        3.0311320198
 H        -7.9643985122        6.6656670486        1.7716340084
 H        -6.5155049509        7.3915044128        2.5960403715
 H        -6.9269421052        7.6592845470        0.8110395540
 H       -13.2262246768        6.0989898883        7.7671211613
 H       -13.7604463926        7.0994807561        6.3627367687
 H       -12.6021635995        7.6529697723        7.5299842671
 H        -9.6180200523        5.9979321763        6.4198542948
 H       -10.5987614211        4.7021118406        7.0564183551
 H       -10.3076565947        6.2682469169        8.0429707176
 H       -12.7945208790        3.5718896736       -0.9541267954
 H       -12.0437944718        4.9559645351        0.0003500563
 H       -13.8944769313        4.6556457491       -0.2538120874
 H       -14.8959048261        2.6388339999        1.3535787154
 H       -13.6651596578        1.6867481863        2.1467067116
 H       -13.7479572389        1.7387221130        0.3580001621
 H        -7.2056479633       -3.1405892400        0.7535537120
 H        -8.8653792759       -3.0455064612        1.4905821925
 H        -7.3971818000       -2.2662976504        2.2443690807
 H        -5.8839046683       -1.0888664405        0.5106393452
 H        -6.4766156936       -0.0897114294        1.9087427203
 H        -6.5441004008        0.5679416573        0.2901956522
 H       -12.9151260821        0.1351216842       -3.8931979365
 H       -12.4945938249        1.2030959983       -5.1876755246
 H       -12.2684760617        1.6864509152       -3.4539912500
 H       -10.5745009539       -0.0437710788       -6.4637512637
 H       -10.8851159815       -1.5107743590       -5.5629684302
 H        -9.3269928803       -0.7507076907       -5.6186558514
 H        -7.0475956360        0.8159128700       -8.5465173242
 H        -5.3303441049        0.5776471502       -8.0929369368
 H        -5.8439007957        2.0273026730       -8.9675342803
 H        -4.5430550209        1.1779143356       -5.7548438899
 H        -4.5108215552        2.9912998680       -5.4984408625
 H        -4.1082665635        2.2834463570       -7.0394418544
 Na      -10.6117045497        5.8981805939        2.3034067431
