117

 C        -7.3866742028        3.9003429811       -8.4470671495
 C        -6.2056428725        3.6459767037       -7.4582340597
 O        -5.5457557692        4.5890606986       -7.0707742774
 C        -5.9804895845        2.1755605686       -6.9089419832
 C        -7.2599046996        1.8743267375       -6.0751535394
 O        -8.0306532049        1.0661060928       -6.5265633544
 C        -7.3930081922        2.4689865379       -4.6633766772
 C        -8.5185624979        1.7934273202       -3.8373013552
 C       -10.0278641958        1.7490087996       -4.5291654265
 O       -10.4029188396        2.5774783129       -5.3027458451
 C       -10.8924059284        0.4104465738       -4.1895362027
 C       -10.5092744212       -0.3110574092       -2.8448030839
 O       -10.4719045097        0.2625336674       -1.7423336344
 C       -10.0283944235       -1.7752045208       -2.8092401546
 C        -9.4160613781       -2.2361683699       -1.4658081193
 C        -8.3802886023       -1.2155705534       -1.0220507158
 O        -7.5603888466       -0.7524562033       -1.8217886097
 C        -8.0699611799       -1.1326070361        0.5694033042
 C        -9.3406430898       -0.4887484136        1.2668376186
 O       -10.0265339843       -1.0742314718        2.0853791304
 C        -9.5880785255        1.0292056190        1.0224664736
 C       -11.0635652280        1.3996275862        1.1224130805
 C       -11.2580933260        2.9071487373        1.2691694025
 O       -10.4195310354        3.7123332933        1.5196831229
 C       -12.8468928868        3.5534331935        1.2029823631
 C       -13.1227758819        4.5871972188        2.3870343468
 O       -12.7680477478        5.7731420136        2.2054867848
 C       -13.6943056521        4.0702134777        3.6532783804
 C       -13.5337074315        5.1234890211        4.8355922619
 C       -12.0718308199        5.3519109946        5.2207076220
 O       -11.2103261416        4.8295928337        4.5810207194
 C       -11.6990007279        6.4164264885        6.2308489942
 C       -11.4086667031        7.7429479913        5.4074067503
 O       -12.1380132345        8.0995449085        4.4943553758
 C       -10.1019400694        8.5902243966        5.7300727703
 C        -9.4922587360        9.2959341921        4.5085599985
 C        -9.0311605119        8.2591544374        3.5399244832
 O        -9.1744435411        7.0687270268        3.7935693425
 C        -8.3004112068        8.7300907852        2.2011129757
 C        -9.4704513819        8.7674826774        1.1485070951
 O       -10.1926143337        7.8016765307        1.0723455982
 C        -9.6808180429       10.0417500710        0.2584613960
 C        -7.6256371231       10.0205832383        2.3105570597
 C        -7.2770447233        7.7173641431        1.7745719819
 C       -12.8119203040        6.8541643859        7.2780196629
 C       -10.5645655656        5.9330438558        7.0811426429
 C       -12.8405391019        4.3240392507       -0.1427673560
 C       -13.9057532427        2.4766869780        1.0821258344
 C        -7.9032017589       -2.5878000593        1.1624816458
 C        -6.8457293810       -0.2496003124        0.7437656349
 C       -12.4145498528        0.6971362039       -4.0596106374
 C       -10.6411292868       -0.6431538638       -5.3023772869
 C        -5.8865588797        1.1351434825       -8.0460584860
 C        -4.7613333047        2.1390816782       -6.0373582401
 H        -7.3346202652        4.8810723055       -8.8132347315
 H        -8.2791302775        3.8568469238       -7.8181391505
 H        -7.4464441780        3.1901269575       -9.3247957982
 H        -7.3767692951        3.5163065595       -4.5615223217
 H        -6.4136392405        2.1619881719       -4.1939655037
 H        -8.7188376631        2.3579470802       -2.8982063765
 H        -8.1949131646        0.8078118433       -3.5568808546
 H        -9.3511647386       -1.9116701960       -3.6140929912
 H       -10.9123333832       -2.3393493263       -3.0942404526
 H        -8.8367347550       -3.2204976638       -1.5633857079
 H       -10.1642749680       -2.3788032640       -0.6977427744
 H        -9.1721227597        1.3364164955       -0.0238795329
 H        -8.9864185589        1.5178722926        1.8227228336
 H       -11.5813080159        0.9482864048        1.9683971507
 H       -11.5725415660        1.0635481785        0.2617348178
 H       -13.1581655505        3.1510254056        3.9237264323
 H       -14.7727606740        3.8856111259        3.5374258753
 H       -13.9982029536        4.8518253598        5.8090080583
 H       -13.9828777529        6.0913147971        4.5490054375
 H        -9.3413667520        7.9669834776        6.2156722378
 H       -10.3333307325        9.3373746055        6.5190192164
 H        -8.6361541593        9.9769380991        4.8020547109
 H       -10.2032555718       10.0416727790        4.0445118098
 H        -9.1233209914        9.9348318319       -0.6356044230
 H        -9.4749503338       10.8400440343        0.9025094832
 H       -10.7291295004        9.9148688187       -0.0920807722
 H        -8.2380225577       10.7364178821        2.8652655662
 H        -7.2312105762       10.4387936711        1.3317407571
 H        -6.7114762562        9.9658709080        3.0177615985
 H        -7.6209280227        6.6504038728        1.6331211666
 H        -6.4933180986        7.8429455613        2.4327217631
 H        -6.8787080973        7.9584514698        0.7789609065
 H       -13.2500131642        5.9504476716        7.6768258923
 H       -13.5667263259        7.4070452900        6.7308254046
 H       -12.4612882583        7.3756140077        8.1463054829
 H        -9.8549345723        5.3194630895        6.5511967884
 H       -10.9165749425        5.3444265135        7.8916331449
 H       -10.0292877990        6.7630555666        7.4553853399
 H       -12.6354740515        3.6282206526       -0.9367366454
 H       -12.1075507600        5.1253686040       -0.0883758445
 H       -13.8223872908        4.6347556751       -0.4779676681
 H       -14.8735288225        2.8862867721        1.2321878688
 H       -13.8207829040        1.7217288018        1.8368221131
 H       -13.9277542929        2.0813070126        0.0665707319
 H        -7.0238970170       -3.0286319921        0.7454386116
 H        -8.7485249364       -3.1622605887        0.8545325651
 H        -7.8648099930       -2.4694973058        2.2789396171
 H        -6.0490677723       -0.5141996086        0.0477895588
 H        -6.5059442289       -0.2993018717        1.8384016816
 H        -7.1206027155        0.8170734429        0.6808741200
 H       -12.9844080737       -0.2529166939       -4.1461266185
 H       -12.8179916654        1.3582070754       -4.8478935397
 H       -12.6537734700        1.0464370713       -3.0925664793
 H       -10.8780509703       -0.2628748526       -6.3124381411
 H       -11.2698579534       -1.5065111491       -5.1791122528
 H        -9.6075404351       -0.9318138893       -5.4938070451
 H        -6.8719163437        0.9001488087       -8.3959432451
 H        -5.6306535934        0.1676746740       -7.6177604158
 H        -5.2834394351        1.5754995779       -8.8516971024
 H        -4.7164852808        1.3130337688       -5.2622022237
 H        -4.7648056381        3.0168050076       -5.5062986785
 H        -3.8212565924        2.1310487512       -6.5644052650
 Na      -10.3449911784        5.7760849705        2.3236045533
