117

 C        -7.0731576556        3.3521264720       -8.5101466428
 C        -6.1420737908        3.3841828344       -7.3316998703
 O        -5.7894323396        4.4590229874       -6.9114113702
 C        -5.7583542003        1.9991613296       -6.6629562253
 C        -7.1188924139        1.4851330354       -6.1173017609
 O        -7.7771425556        0.6194223890       -6.6843188983
 C        -7.6553817360        2.0700343508       -4.8106507288
 C        -8.6663749976        1.0654386651       -4.1611116283
 C       -10.0587203079        1.5283029116       -4.3914554139
 O       -10.3517877869        2.6729840629       -4.6684276720
 C       -11.1107364321        0.3555332703       -4.2403686683
 C       -10.7262816263       -0.3652699748       -2.9148955791
 O       -10.9719482348        0.1551811845       -1.8313652504
 C       -10.1402685120       -1.8174878164       -2.9137994299
 C        -9.5457863419       -2.1807468852       -1.5509560968
 C        -8.4207443280       -1.2480076135       -0.9806435929
 O        -7.8263649945       -0.5556356754       -1.7407558480
 C        -8.2027637489       -1.1839823585        0.6169644267
 C        -9.5388582774       -0.4963894174        1.1093142880
 O       -10.3521457601       -1.1956806217        1.6645356168
 C        -9.7336395312        1.0064394217        0.9802117945
 C       -11.2025226981        1.3712258522        1.3092852914
 C       -11.2975299591        2.9440786878        1.4199795076
 O       -10.3138948355        3.5865138173        1.8263089229
 C       -12.6884834285        3.6493523527        1.1934950116
 C       -12.8801312346        4.7268108005        2.2798914786
 O       -12.5065017314        5.8507777506        2.0508562056
 C       -13.4647649151        4.2859579706        3.5934577729
 C       -13.3820396126        5.4451783158        4.6508509455
 C       -11.8407996075        5.5934056380        5.0844897719
 O       -10.8859693705        5.0357616743        4.5587087412
 C       -11.5650641102        6.5945897394        6.2624043931
 C       -11.1910132619        7.9887269149        5.5523919534
 O       -12.0207675039        8.4681958083        4.8164103632
 C        -9.8824729115        8.7234355288        5.7847419109
 C        -9.4144787119        9.4211682829        4.5357375112
 C        -9.0033027727        8.3956484048        3.4559694493
 O        -9.0417859515        7.1924330545        3.7195716870
 C        -8.5397340558        8.8567571722        2.0735285148
 C        -9.6256976821        8.6605838495        1.0257893152
 O       -10.1549041791        7.5855337208        0.9776310732
 C       -10.1028259440        9.8247494314        0.1208404112
 C        -7.9429637660       10.2883632377        2.1401686289
 C        -7.3215819125        7.8409130740        1.7020878573
 C       -12.8368862828        6.8661400293        7.1314775726
 C       -10.4053962995        5.9554774405        7.0602504760
 C       -12.4305563123        4.3163620291       -0.2323167284
 C       -13.8979636820        2.7393161429        1.0987843043
 C        -7.8744097754       -2.5349559216        1.3346040529
 C        -6.9824040008       -0.1594919961        0.8426698983
 C       -12.4703356190        0.9513944633       -4.0542564966
 C       -11.1991622612       -0.5779556788       -5.4483280601
 C        -5.2697398788        0.9868746114       -7.7186938390
 C        -4.7013324554        2.2518085061       -5.6338226528
 H        -7.8227534086        4.1734885676       -8.3072083726
 H        -7.5844707671        2.4188141517       -8.6107401478
 H        -6.5220890358        3.5826940174       -9.4072605553
 H        -8.1077727392        3.0603971124       -5.0336309316
 H        -6.9011018009        2.3558580489       -4.1237897545
 H        -8.4707671733        0.9832521929       -3.0877700017
 H        -8.5573502107        0.0843575038       -4.5986703813
 H        -9.4070397889       -1.9161021189       -3.6607512672
 H       -10.9638531488       -2.4893868564       -3.1616729988
 H        -9.0447763455       -3.1413695826       -1.7012217492
 H       -10.3808040775       -2.3220008542       -0.7824769897
 H        -9.4969349592        1.3308545856       -0.0043588992
 H        -8.9048826341        1.4267519435        1.6775864723
 H       -11.4474173106        1.0256619531        2.3143468229
 H       -11.8882508926        0.9894735097        0.5887425216
 H       -12.9538018312        3.4001555852        3.9942502752
 H       -14.5264133259        4.1269716132        3.5417932848
 H       -13.8663833101        5.2552640561        5.6831934768
 H       -13.6420629189        6.4440883694        4.2832270013
 H        -9.1054412867        8.0576844801        6.1549212015
 H       -10.0275265232        9.4271200640        6.6281605460
 H        -8.6099754372       10.1568446266        4.8203312399
 H       -10.2343844779       10.0746210606        4.0894411311
 H        -9.3333522754       10.5656130462        0.2434495470
 H       -11.1460807271       10.0343299066        0.4665689942
 H       -10.0922061428        9.5070840512       -0.8735363433
 H        -8.7313253937       11.0443896213        2.6012682284
 H        -7.7263161925       10.7494880084        1.1387578994
 H        -7.0387074421       10.2542790988        2.7641158833
 H        -7.6932818268        6.8844868046        1.9446831038
 H        -6.3889871398        8.0706434523        2.3403882395
 H        -7.0234267837        7.7925104559        0.6500204004
 H       -13.1489389956        5.8751608607        7.3574149413
 H       -13.6381737502        7.3355073469        6.6521267126
 H       -12.5716693460        7.3929415464        8.0716746688
 H        -9.6141884079        5.9281683713        6.3399078421
 H       -10.5871197861        5.0047880304        7.5370261626
 H       -10.0808222857        6.6694479147        7.8375973821
 H       -12.2834488112        3.4916265931       -0.9906754852
 H       -11.5672228364        4.9682478332       -0.1626663424
 H       -13.2178032333        5.0022327853       -0.4839239678
 H       -14.8204624283        3.2310712596        1.3081260500
 H       -13.8110776516        1.9012385526        1.7450297526
 H       -13.9723389521        2.2747862311        0.1716463007
 H        -7.2962630769       -3.0304216206        0.5341203157
 H        -8.7913942218       -3.0560690607        1.5935185197
 H        -7.3513230020       -2.3506168371        2.2235906744
 H        -5.9818721215       -0.6993086541        0.6915963516
 H        -7.0144495291        0.2820040892        1.8203237327
 H        -7.1545773033        0.6496188195        0.0997419755
 H       -13.2766912827        0.2035365516       -3.9132494257
 H       -12.6689094930        1.6058739748       -4.8764789912
 H       -12.3985744207        1.6290036478       -3.1809475952
 H       -11.4409979215       -0.0995979060       -6.4025976191
 H       -11.9892789885       -1.3501559704       -5.3625713549
 H       -10.2224940361       -1.0650522204       -5.5792810182
 H        -6.1037066845        0.8203465332       -8.4517892437
 H        -4.9726666172        0.0270769536       -7.3103367313
 H        -4.3872836223        1.4102447991       -8.1915606844
 H        -4.5138355902        1.4191159061       -5.0181482415
 H        -4.7799721575        3.1176930616       -4.9280496967
 H        -3.7983848124        2.3224078582       -6.1689078720
 Na      -10.2829044540        5.8902612945        2.2893766053
