117

 C        -6.6807257805        3.0796282576       -8.7265531768
 C        -6.1084635442        3.2017968828       -7.2974475407
 O        -6.0835388707        4.3002927765       -6.7510526362
 C        -5.5717418211        1.9156254222       -6.6009446243
 C        -6.8456059145        1.1831146960       -6.1304638274
 O        -7.2410311383        0.2213565978       -6.7415764140
 C        -7.6996955227        1.8593123442       -5.0676541311
 C        -8.7287530394        0.9135499382       -4.4761304728
 C       -10.1096841946        1.4617342377       -4.2622674678
 O       -10.4078014338        2.6281551429       -4.3553530194
 C       -11.3365681507        0.3498545515       -4.0879887210
 C       -11.0446644535       -0.4442785396       -2.7225482183
 O       -11.5111073687       -0.0545374760       -1.6850348657
 C       -10.3214683310       -1.8000874402       -2.7898820973
 C        -9.7417846650       -2.0691219400       -1.4031617559
 C        -8.5168424496       -1.2747474433       -0.9676694384
 O        -7.8193614785       -0.7224450263       -1.7803519947
 C        -8.2995447742       -1.2531174473        0.6105020162
 C        -9.6332238078       -0.6085772113        1.0654205777
 O       -10.6405982673       -1.2555435471        1.3350222442
 C        -9.6581428206        0.8638232716        1.2545117306
 C       -11.1332508915        1.3374457726        1.0368173047
 C       -11.3268389409        2.8426446411        1.4955722000
 O       -10.3183014052        3.4923146198        1.7639196805
 C       -12.6190542817        3.7287802202        1.1471184582
 C       -12.8094973562        4.9124537403        2.1686917049
 O       -12.4570658830        6.0185323469        1.8829726688
 C       -13.4015032432        4.5212588005        3.5022176663
 C       -13.2559376686        5.6989108568        4.5747638978
 C       -11.7856287023        5.7814001960        5.1494507135
 O       -10.8732348943        5.1462643669        4.6221200664
 C       -11.4891335630        6.7550697825        6.3339302595
 C       -11.0705941530        8.1868185733        5.6427992008
 O       -11.9203269534        8.6975470314        4.9990771067
 C        -9.6349949730        8.8316004105        5.8342103125
 C        -9.2442243620        9.5867996148        4.5631625652
 C        -9.0600683564        8.6405469856        3.3976543622
 O        -9.2697766384        7.4426508024        3.5869078432
 C        -8.4995440904        9.1113734243        2.0243908643
 C        -9.6994904316        8.6982344485        0.9782320203
 O        -9.9305860822        7.5146429742        0.8656407185
 C       -10.4069162140        9.7181110967        0.0874225290
 C        -8.1583443958       10.5531894396        2.0078018848
 C        -7.4163003237        8.2166438367        1.5812979644
 C       -12.6754823881        7.0296661688        7.2164901764
 C       -10.2408009423        6.1215869522        7.0855970565
 C       -12.3787652405        4.3042814112       -0.2753040999
 C       -13.9018307976        2.8200415752        1.1321873775
 C        -8.2075653071       -2.6943894587        1.1404240241
 C        -7.0145522907       -0.5516682544        0.9975373974
 C       -12.6994667137        1.0976167435       -4.0116394375
 C       -11.3553533729       -0.6613987811       -5.2364345641
 C        -4.8034492848        1.0218730459       -7.6458129456
 C        -4.6181631594        2.2746086663       -5.5645672939
 H        -7.7666838953        3.4668821809       -8.6938305144
 H        -6.6059182006        2.0616693111       -9.1517468470
 H        -6.1418373815        3.7177961768       -9.3195817561
 H        -8.2207836507        2.7484636958       -5.5447379895
 H        -7.0618014128        2.2848170526       -4.3383398164
 H        -8.4352759037        0.6410027511       -3.4408689925
 H        -8.7405985935       -0.0161961531       -5.0476410659
 H        -9.6602085261       -1.9257131618       -3.5950897364
 H       -11.1689180815       -2.4891463248       -2.8588074111
 H        -9.4019515658       -3.0762336073       -1.3645316445
 H       -10.5253842775       -1.9714603590       -0.6118036476
 H        -8.9767417006        1.3568158698        0.5630077038
 H        -9.3043135637        1.1509643424        2.3389151063
 H       -11.7774398389        0.7147297896        1.6167950859
 H       -11.4866123726        1.4453565266        0.0111918237
 H       -13.1309188092        3.5366585383        3.9655102404
 H       -14.5019669970        4.4546845586        3.3739411329
 H       -13.7301671024        5.6139022803        5.5487089552
 H       -13.3608857704        6.7535355893        4.1331534349
 H        -8.9239948491        8.0223374977        6.0519895660
 H        -9.6456207702        9.5540087002        6.6797374812
 H        -8.3291927346       10.1470151664        4.7028470768
 H       -10.0264341427       10.3270688416        4.3644269017
 H        -9.8349294804       10.6695593704        0.1682180488
 H       -11.4652280212        9.7125609276        0.4450831533
 H       -10.4016628950        9.2666123029       -0.8692586767
 H        -8.7283608772       11.2115171221        2.6589916333
 H        -8.3163299543       10.9055339119        1.0421102974
 H        -7.0360609613       10.6735190660        2.1050582347
 H        -7.7553819162        7.1932599110        1.4208701078
 H        -6.5840048181        8.0824645175        2.3566287902
 H        -6.9950238192        8.7082648849        0.6935620931
 H       -12.7446583743        6.1282992115        7.8092777339
 H       -13.6082036810        7.2277092773        6.6918714478
 H       -12.5187533566        7.9246534514        7.8385825686
 H        -9.3359751429        6.3078074291        6.4683910861
 H       -10.2959273042        4.9843571635        7.3363163738
 H       -10.2158679707        6.7023816390        8.0363264356
 H       -12.0060024784        3.4921220454       -0.8923309538
 H       -11.6120421728        5.1443384744       -0.3209227978
 H       -13.4162446796        4.7247681317       -0.5289570303
 H       -14.7620194721        3.4746947130        1.0290137838
 H       -14.0587969876        2.1331824480        1.9503889767
 H       -13.9792743772        2.1725008461        0.2817301053
 H        -7.1513664622       -2.9891039997        0.9761801849
 H        -8.9555062816       -3.3146062327        0.6137359548
 H        -8.3392289405       -2.6566309508        2.1883048892
 H        -6.0834122107       -1.0256767827        0.5514823343
 H        -6.9493184231       -0.5901707496        2.0576558837
 H        -7.0103956299        0.4469726750        0.4060803931
 H       -13.4087229656        0.2830619879       -4.0229865524
 H       -12.8125731259        1.7595955216       -4.8508764300
 H       -12.7929885607        1.7162292249       -3.0675131215
 H       -11.8232617924       -0.2708914157       -6.1295636193
 H       -11.9514084097       -1.5517282593       -4.9235111967
 H       -10.3859029327       -1.1145995206       -5.3782538679
 H        -5.5539236985        0.4213238137       -8.1265332580
 H        -3.9575159042        0.5346734827       -7.2430758005
 H        -4.3551640728        1.5757394806       -8.4152833887
 H        -4.4632147830        1.4844649880       -4.8980150145
 H        -4.8725929428        3.1950801485       -4.9081139328
 H        -3.6361265336        2.5601250868       -5.9747512647
 Na      -10.0017952380        5.6634093681        2.3435599101
