117

 C        -6.2449756091        3.0563422114       -8.8706376304
 C        -6.0539838326        3.1659802979       -7.3697511099
 O        -6.3967068408        4.1641126585       -6.7638917621
 C        -5.5062239257        1.8936789893       -6.6080518677
 C        -6.7178557063        0.8313530822       -6.2114618212
 O        -6.6793121164       -0.3340923815       -6.5082939461
 C        -7.9113788367        1.4884809582       -5.5046087373
 C        -8.8766430763        0.5891655462       -4.8065474025
 C       -10.1156604543        1.2749054664       -4.2657371745
 O       -10.0797636534        2.4370333282       -3.9273495511
 C       -11.4583457424        0.3275519375       -4.0678615458
 C       -11.1916423979       -0.6115326303       -2.8008405235
 O       -11.5288017443       -0.2201553865       -1.7105388224
 C       -10.3081389836       -1.8099546934       -3.0096019735
 C        -9.9362237619       -2.3312206995       -1.5859904170
 C        -8.8272684368       -1.4712360890       -0.9541878486
 O        -8.1043159424       -0.7347700176       -1.6509366948
 C        -8.6676886065       -1.4734502741        0.6277806729
 C        -9.8865275799       -0.7197334215        1.3084707025
 O       -10.8752545880       -1.3484092228        1.6760065307
 C        -9.7753103412        0.8170655115        1.4240621412
 C       -11.1573243165        1.4216282980        1.1936521248
 C       -11.1024230607        2.9912372725        1.3977845201
 O       -10.0555522605        3.5592205391        1.7179088615
 C       -12.4981442906        3.6889722864        1.1430845441
 C       -12.6293535805        4.9446704381        2.1143758317
 O       -12.2798249446        6.0364466052        1.7904028824
 C       -13.2674999296        4.7459933330        3.4989857496
 C       -13.0590999456        6.0092450005        4.4756931903
 C       -11.6870541716        5.9878153173        5.0728932080
 O       -10.7664859956        5.3303390728        4.5877449669
 C       -11.3333638494        6.8410646072        6.2681742497
 C       -11.0243072830        8.2702764971        5.6380214665
 O       -11.8531291110        8.8205572025        4.9446336990
 C        -9.6529572373        8.9766440204        5.8679269030
 C        -9.1769361718        9.7535012533        4.6007647855
 C        -9.0249500339        8.7481181486        3.4464598146
 O        -9.1561335304        7.5592882616        3.6618554897
 C        -8.7010275477        9.2577432038        2.0025714711
 C        -9.6875955063        8.7086025998        0.9233944590
 O        -9.7373666618        7.5229849010        0.6038779290
 C       -10.6329508390        9.6878863515        0.1696627784
 C        -8.5435212264       10.8493849645        1.9044365827
 C        -7.3087363307        8.5213748132        1.5464979013
 C       -12.5289111007        7.0800208167        7.1930913349
 C       -10.1192689881        6.3394503970        7.1281519360
 C       -12.5589315516        4.3786833628       -0.2482462561
 C       -13.6835995775        2.6698148139        1.3028513187
 C        -8.5381163241       -2.9152576746        1.1864086855
 C        -7.3212782336       -0.7256068471        0.9186679851
 C       -12.7147867684        1.2556282217       -3.8655198895
 C       -11.7011622246       -0.5048827328       -5.3539589861
 C        -4.4744117993        1.1861623225       -7.5259312832
 C        -4.8029856349        2.3961705695       -5.2391546302
 H        -6.8050604539        3.9601250924       -9.1824642110
 H        -6.8046118013        2.1293211925       -9.1766842280
 H        -5.3380956933        3.0324623267       -9.3766501753
 H        -8.4646693817        1.8145548859       -6.4663342174
 H        -7.6094967692        2.3279977900       -4.9284150519
 H        -8.2963968149        0.1602771751       -3.9613591448
 H        -9.0909694504       -0.2623020325       -5.4701376673
 H        -9.4854949766       -1.5797574030       -3.6831892620
 H       -10.9901135032       -2.5719458182       -3.4430966190
 H        -9.7446050953       -3.3629453943       -1.5120710741
 H       -10.8183756253       -2.1508474958       -0.9321516062
 H        -9.0703671791        1.1419034658        0.6523017522
 H        -9.3001211568        1.0818668202        2.4230329446
 H       -11.8257381615        1.0833936899        1.9345794616
 H       -11.5110671714        1.1682487584        0.1870408526
 H       -13.2890511410        3.7434433764        3.9838555204
 H       -14.3761051541        4.8090218152        3.3753170359
 H       -13.6140115819        5.9904615207        5.3716330116
 H       -13.1959075563        7.0368666190        3.8939083801
 H        -8.8380914233        8.2906325469        6.1551524722
 H        -9.8575291279        9.7258250204        6.6426267454
 H        -8.3234358943       10.3186429658        4.8195808381
 H        -9.9443858944       10.4120894203        4.3052724365
 H       -10.0790677942       10.1440221145       -0.6895017220
 H       -10.9738025986       10.4405678358        0.8659303402
 H       -11.4238842458        9.0019580323       -0.1625618671
 H        -9.4317776608       11.2303781963        1.6541743804
 H        -7.8102532852       11.0415393607        1.1838960637
 H        -8.2775208828       11.3902428592        2.7964013220
 H        -7.4338839125        7.3996677018        1.6375727128
 H        -6.4809031394        8.7734390412        2.1862789650
 H        -7.0830523333        8.8039481069        0.5411932043
 H       -12.9899500055        6.1037131608        7.3969574879
 H       -13.2309366195        7.8310102795        6.7241779201
 H       -12.2782727630        7.3974553849        8.1953493567
 H        -9.5615933846        5.6941058410        6.4539082056
 H       -10.4292389861        5.6513106214        7.9602167131
 H        -9.5431594427        7.1608057995        7.4617790796
 H       -12.5983196604        3.5731428891       -0.9147724097
 H       -11.6146938221        4.9203729621       -0.3949137081
 H       -13.5538098929        4.9009018941       -0.3774523420
 H       -14.6909845931        3.1194937536        1.0953258330
 H       -13.7800005474        2.4377681988        2.3869587260
 H       -13.6922805215        1.7662819323        0.6496808789
 H        -8.0759121377       -3.5261960830        0.4048361222
 H        -9.5592512061       -3.2891700676        1.4101768630
 H        -7.8516898877       -2.9060026795        2.0028751845
 H        -6.5903118195       -1.4090592257        0.5027610203
 H        -7.0970692942       -0.6465538547        1.9776945532
 H        -7.2113411606        0.2619801295        0.3559080679
 H       -13.5759647848        0.6541249017       -3.7000795740
 H       -12.7925195369        1.8536438214       -4.7687452808
 H       -12.5070901291        1.8511779018       -2.9407186948
 H       -11.4123438788        0.0784940282       -6.2027562232
 H       -12.7494473215       -0.8748926800       -5.3819920140
 H       -11.0276609055       -1.3635767894       -5.3362859136
 H        -4.7461701063        1.2067806830       -8.5622546567
 H        -4.2747586974        0.1194143213       -7.2130131646
 H        -3.4831876483        1.6410549422       -7.5640684409
 H        -4.1849844868        1.6320770839       -4.8299534506
 H        -5.4426814555        2.6994410142       -4.3674832196
 H        -4.2016889059        3.3296008412       -5.4081278471
 Na       -9.8989673982        5.8218124543        2.2919813977
