117

 C        -7.0873950119        3.2473744606       -8.6483483785
 C        -6.1591853632        3.3329741657       -7.3399390170
 O        -5.7841535937        4.3585287204       -6.7790330262
 C        -5.6396139016        1.9711096674       -6.6941551353
 C        -7.0260869215        1.3727896257       -6.1100760364
 O        -7.6535123035        0.5601813254       -6.7577558377
 C        -7.5567257410        2.0059963377       -4.7905617746
 C        -8.6284926115        1.0645841997       -4.2056047342
 C       -10.0720764630        1.4988909656       -4.3863434019
 O       -10.4690068648        2.6312057360       -4.5599752202
 C       -11.2154995912        0.3350954008       -4.1550002956
 C       -10.8884808762       -0.3262235475       -2.7553616822
 O       -11.2115952011        0.2722088060       -1.7786725539
 C       -10.1201941850       -1.7156395538       -2.8082016274
 C        -9.5289986266       -2.3009733870       -1.5824369845
 C        -8.4223323405       -1.2845055901       -0.9916184998
 O        -7.8276549309       -0.5572542034       -1.7952701440
 C        -8.2482613312       -1.1633476738        0.5265338284
 C        -9.6071768088       -0.5408551423        1.1860621041
 O       -10.5167814910       -1.2504137334        1.5739078945
 C        -9.7094880648        0.9967479848        0.9837539361
 C       -11.1713400039        1.4100728582        1.2623369137
 C       -11.3103579897        2.9845984304        1.5214526958
 O       -10.3024176079        3.6027723692        1.8883085061
 C       -12.6404602730        3.6291790987        1.1481457068
 C       -12.8488186158        4.7774190208        2.1576489296
 O       -12.5554353720        5.9240765920        2.0114871969
 C       -13.4310447578        4.3203940148        3.5122023542
 C       -13.3012590793        5.4012542502        4.6130179797
 C       -11.8607845673        5.6722225833        5.1042215782
 O       -10.9299013818        5.0590530872        4.5642624228
 C       -11.5088700368        6.6217065844        6.3055697350
 C       -11.1790427782        8.0471424005        5.5852363148
 O       -12.0114799788        8.5394477841        4.8872121647
 C        -9.8234212217        8.7571399495        5.8283761957
 C        -9.3590446192        9.4201481993        4.5053270061
 C        -9.0551572944        8.3952916509        3.3800129352
 O        -9.1490494717        7.2205405993        3.7013821649
 C        -8.4812485744        8.8992201840        2.0581839248
 C        -9.6194297179        8.6864651186        0.9978173289
 O       -10.1918569972        7.5966706592        0.9056183398
 C       -10.2426565977        9.8225884066        0.1306432030
 C        -7.9180781746       10.3619067169        2.0559694306
 C        -7.2862166096        7.9913022672        1.7012836053
 C       -12.7753638953        6.9155705552        7.2146015033
 C       -10.3547367482        5.9996576786        7.0735995743
 C       -12.4072808189        4.3374708403       -0.2523284986
 C       -13.8707777091        2.6134136750        1.0639498029
 C        -7.9396972561       -2.4913224789        1.2479833885
 C        -7.0411068458       -0.2087711841        0.8552852968
 C       -12.6503112600        0.9021103027       -4.0138190083
 C       -11.1969456914       -0.6144116477       -5.3727312864
 C        -5.0981179298        1.0540695741       -7.7542230398
 C        -4.6240999472        2.2522658773       -5.5989521164
 H        -8.0061264123        3.8574070427       -8.5921347487
 H        -7.3267122519        2.1994395111       -8.9297910886
 H        -6.4744702280        3.6130074160       -9.3824539351
 H        -8.0012968300        2.9879163312       -5.0557951169
 H        -6.8177219109        2.2864873474       -4.0722292846
 H        -8.5468974636        1.0179494430       -3.1339206197
 H        -8.4585739730        0.0466040924       -4.6091004500
 H        -9.2727165718       -1.5502597027       -3.5311165387
 H       -10.8255889179       -2.3754395137       -3.2874783397
 H        -9.0999632087       -3.3038932273       -1.8004800253
 H       -10.3463478887       -2.3884773963       -0.8056493290
 H        -9.5096829305        1.1780381446       -0.0604488037
 H        -8.9244644014        1.4661607079        1.5390776614
 H       -11.5549267656        0.8804144758        2.1135175590
 H       -11.7802610956        1.1466982175        0.2999877400
 H       -12.9379710450        3.4400221645        3.8549052562
 H       -14.4836842447        4.1886016206        3.5904042108
 H       -13.8090056524        5.2109702515        5.4859879614
 H       -13.5873858175        6.4411330218        4.1607793626
 H        -9.0242761629        8.1398832734        6.2681657090
 H        -9.9869701616        9.5245840268        6.5546169737
 H        -8.3774964091        9.9015226604        4.8084603424
 H        -9.9794797381       10.3110155916        4.2021831442
 H        -9.5887328081       10.6811406859        0.2105075126
 H       -11.2725851568        9.8592969854        0.3070257562
 H       -10.0883735501        9.3746896841       -0.8300369945
 H        -8.7827983105       11.0438973060        1.9302363692
 H        -7.2656017934       10.6201574619        1.2142605393
 H        -7.3721702773       10.5858342460        3.0672666794
 H        -7.6102671088        6.9777040596        1.9958978274
 H        -6.3957559921        8.2401227021        2.2427380925
 H        -7.0667412376        7.9895141279        0.6727595685
 H       -13.3159513831        5.9900461502        7.4021200991
 H       -13.5035362152        7.6312189084        6.7503553288
 H       -12.4117646660        7.3363948378        8.1074507548
 H        -9.7900681074        5.4942730489        6.3548246179
 H       -10.7025736038        5.3428124909        7.8610770601
 H        -9.7706504773        6.7142187017        7.5264760536
 H       -12.2087972624        3.6565289203       -0.9745522176
 H       -11.6697639705        5.0992066876       -0.2089466635
 H       -13.3352426267        4.9029339824       -0.3479442936
 H       -14.8576700342        3.0545883724        1.0164368410
 H       -13.8296127531        1.9009516959        1.8708260483
 H       -13.7578657535        1.8973769134        0.2450967101
 H        -7.2727359895       -3.0725734041        0.6517467066
 H        -8.9189417585       -2.9620997298        1.4340788362
 H        -7.5433162049       -2.2202225368        2.2115413966
 H        -6.1750697241       -0.7231511750        0.5260700798
 H        -6.9656178094       -0.1675827164        1.8919683797
 H        -7.1176230414        0.8096883197        0.3848579901
 H       -13.3857919880        0.1350318960       -4.0213404042
 H       -12.7899002727        1.6563141809       -4.7880893578
 H       -12.6782998965        1.5030492270       -3.0727493007
 H       -11.3329117840       -0.1256060466       -6.3241182521
 H       -12.0229160055       -1.3564957883       -5.3801908994
 H       -10.2407699003       -1.1763091825       -5.3894749829
 H        -5.9037828522        0.5393503688       -8.3044049917
 H        -4.3012626486        0.3383098234       -7.3277185251
 H        -4.4438974691        1.6676519258       -8.4375650552
 H        -4.6978880981        1.6737133471       -4.7438764128
 H        -4.6686034427        3.2922143126       -5.2504136976
 H        -3.6048027949        2.0594918030       -5.9381716686
 Na      -10.1240410425        5.7776781294        2.3576826286
