117

 C        -6.5173322096        3.1463105910       -8.8405572379
 C        -6.0749919754        3.1871393545       -7.3786626863
 O        -6.2315234058        4.1809945159       -6.7205651557
 C        -5.5545279729        1.8725588817       -6.6546420009
 C        -6.7840856260        1.1182292000       -6.1896640692
 O        -6.9380634382       -0.0376929191       -6.5584853286
 C        -7.8666582739        1.7827567782       -5.2757367451
 C        -8.7862902721        0.6580746256       -4.6462983525
 C       -10.1447317337        1.2601679486       -4.3012876863
 O       -10.2885410186        2.4638255276       -4.1465628565
 C       -11.3721421549        0.3090225840       -4.1442568792
 C       -11.1335978588       -0.4443144212       -2.8381738154
 O       -11.6310878530       -0.0492248672       -1.7703600987
 C       -10.2781417438       -1.8108782112       -2.8967595019
 C        -9.7643465594       -2.3453466838       -1.5262339731
 C        -8.6345756448       -1.5230649157       -0.9209105620
 O        -8.0081296290       -0.8114890009       -1.6453296717
 C        -8.3663727751       -1.3803539261        0.6805504444
 C        -9.6689293035       -0.6911756199        1.2313797867
 O       -10.6313914739       -1.3774922528        1.4509790530
 C        -9.7658422411        0.8707656845        1.4183969137
 C       -11.1206163704        1.4152970289        1.1127020265
 C       -11.2168992250        2.9512557155        1.4521757426
 O       -10.2361649277        3.5861090708        1.7471922522
 C       -12.6220764723        3.7407620336        1.1161201124
 C       -12.7012405002        4.8651117197        2.2107127757
 O       -12.2004523320        5.9829784811        1.9224485654
 C       -13.3459990010        4.7442068308        3.5636036843
 C       -13.0912782263        5.8582576911        4.4876342040
 C       -11.6424560937        5.9216328350        5.0767544577
 O       -10.8268314550        5.2023881228        4.5571839949
 C       -11.3898947276        6.8132744344        6.2709109763
 C       -11.0271393401        8.2564709506        5.6494184316
 O       -11.8746718635        8.8013995178        4.9596987223
 C        -9.6280867465        8.9335947350        5.8541949510
 C        -9.2514635535        9.6302138244        4.5441980232
 C        -9.1338572879        8.6664012115        3.3926892255
 O        -9.1792058528        7.4769618886        3.6441024744
 C        -8.5998592839        9.1698014338        1.9794670295
 C        -9.6589700081        8.6635341927        0.8663463173
 O        -9.9751873707        7.4973980668        0.7687162778
 C       -10.5591048244        9.6991765224        0.1280339658
 C        -8.3693698563       10.6493239179        1.9282079225
 C        -7.2529159954        8.4084623235        1.7221690387
 C       -12.5937310133        7.0428471413        7.2115078702
 C       -10.2330745836        6.1806856345        7.1308968844
 C       -12.4803692301        4.3810993521       -0.3591597820
 C       -13.8654526539        2.8824736905        1.2329849706
 C        -8.3648940008       -2.8736606677        1.2195677084
 C        -7.0603520530       -0.6218770754        0.9685817147
 C       -12.5485302952        1.2465875401       -3.9160441189
 C       -11.5831131971       -0.5021211285       -5.4387834155
 C        -4.7091474076        0.9850451645       -7.4742554465
 C        -4.7654397678        2.3525313503       -5.4257562379
 H        -7.4166240326        3.6612606553       -8.9450696478
 H        -6.5803950574        2.1427129019       -9.1576525537
 H        -5.7228774380        3.6284027686       -9.5308765475
 H        -8.4293555691        2.4713307487       -5.8476016881
 H        -7.3629326179        2.3578313008       -4.4467406772
 H        -8.2416018470        0.1981054316       -3.8194187364
 H        -8.9373534021       -0.1380541376       -5.3833812839
 H        -9.4568072874       -1.5970902733       -3.6213273634
 H       -10.8826781245       -2.6640692852       -3.2106629085
 H        -9.4434660070       -3.4255123164       -1.7224032568
 H       -10.5612039074       -2.3772650775       -0.7950325919
 H        -9.0223335604        1.4683772416        0.8813932336
 H        -9.5510497633        0.9907186238        2.4244279059
 H       -11.9540065494        0.8943932211        1.6639093754
 H       -11.3187518168        1.4369517793        0.0262713633
 H       -13.0655686018        3.8253630428        4.0307934067
 H       -14.4173683294        4.6501196396        3.6112524133
 H       -13.7350381109        5.9078425882        5.3737979316
 H       -13.0957069955        6.7451820402        3.9670799472
 H        -8.8879656074        8.1737255155        6.0706997839
 H        -9.6997563157        9.6791932772        6.6381004251
 H        -8.2116294927       10.0863509492        4.6354459441
 H        -9.9510881910       10.4886376404        4.3468787035
 H       -10.0744880002       10.6145372118        0.0081457496
 H       -11.3443203911        9.7907991918        0.8595798101
 H       -10.9561000246        9.2018040773       -0.7606856126
 H        -9.1366810173       11.2924516328        2.4999123370
 H        -8.2834505558       11.0281900770        0.8338111385
 H        -7.3890840073       10.8254116098        2.3092311094
 H        -7.2691722687        7.3518240301        1.9062000525
 H        -6.4870982513        8.7807637823        2.3691770206
 H        -6.9731456731        8.7006576351        0.7160660629
 H       -13.1632775796        6.1757761402        7.5439804222
 H       -13.1591897407        7.7923989953        6.7141823338
 H       -12.2304892310        7.5571375014        8.1061273292
 H        -9.3593643863        5.9357588168        6.5627635057
 H       -10.5966954831        5.2919118320        7.4818204578
 H       -10.0711884372        6.8332693824        7.9771051702
 H       -12.4672963857        3.5909507947       -1.1477106457
 H       -11.5189383144        4.8120338545       -0.3528749530
 H       -13.2203008583        5.0875171822       -0.4871646753
 H       -14.8173695169        3.3565153223        1.1398506389
 H       -13.9017463404        2.3090517272        2.1515609255
 H       -13.8624544371        2.1789904616        0.4102327555
 H        -7.6432861179       -3.4378438947        0.6682765378
 H        -9.3540997162       -3.2442191859        1.1320934745
 H        -7.9481352403       -2.8268780465        2.2404082694
 H        -6.1982783062       -1.1819425133        0.7108518516
 H        -7.0254687485       -0.4798879556        2.0651456599
 H        -7.0350090549        0.1991289947        0.3715541447
 H       -13.4301897534        0.6676350157       -3.5745035675
 H       -12.6827015824        1.7697954518       -4.8834748654
 H       -12.2685951712        1.9657610894       -3.1931312510
 H       -11.6123261302        0.2803881767       -6.2280432702
 H       -12.5247944610       -1.0307804123       -5.3991104400
 H       -10.8266162390       -1.2758559476       -5.6255970759
 H        -5.0972737405        0.7833880518       -8.5079586380
 H        -4.5301928683        0.0976013246       -6.8752935987
 H        -3.6663901029        1.3054615115       -7.6850630308
 H        -4.0608575711        1.5796079300       -5.0380624247
 H        -5.3843012599        2.4833244817       -4.6081871845
 H        -4.3118490443        3.3002062974       -5.4869479211
 Na      -10.1147792689        5.8135098839        2.2936864852
