117

 C        -5.5071207861        2.3806810819       -8.7641859227
 C        -6.0070740566        2.6276575065       -7.3578460056
 O        -6.7526505877        3.5576883276       -7.1309740516
 C        -5.5124892414        1.7577914120       -6.1463183551
 C        -6.5902997930        0.6531792323       -5.9763385162
 O        -6.3700297200       -0.5310402188       -6.1289214777
 C        -7.9215177756        1.1049631557       -5.4970898473
 C        -8.8988238056        0.1227267159       -4.9144452566
 C        -9.8904039120        0.8880224268       -4.0846921682
 O        -9.5588168000        1.8196596160       -3.3909396801
 C       -11.4511210605        0.4415721314       -4.0918275667
 C       -11.6585335986       -0.3234236608       -2.7006412357
 O       -12.1522871400        0.1199176069       -1.6903800821
 C       -11.2506752269       -1.8335836639       -2.6604083468
 C       -10.9239611074       -2.2649891109       -1.2563548263
 C        -9.5647748887       -1.8360670869       -0.8226346981
 O        -8.7280804398       -1.4683297602       -1.5988670133
 C        -9.1526464068       -1.8557428409        0.7554113198
 C        -9.9989856313       -0.7231467861        1.4914949150
 O       -10.9167398339       -1.0026179765        2.2747926852
 C        -9.6216574098        0.7606692415        1.2338823142
 C       -10.9506231952        1.5908434677        1.2506044074
 C       -11.0072996738        3.0838018736        1.4158931597
 O        -9.9593690957        3.6491604345        1.7241053382
 C       -12.3544527916        3.8200874817        1.0658784942
 C       -12.4191100634        5.1044292625        2.1127301496
 O       -12.0096966385        6.1969884024        1.8143306362
 C       -13.0498130318        4.9280543116        3.4537231308
 C       -12.7729963497        6.0663036755        4.4188177223
 C       -11.3048245580        6.1330447102        4.8641594186
 O       -10.4086435466        5.5565127535        4.3104304985
 C       -10.9664571747        7.1229401477        6.1102943724
 C       -10.8699924975        8.5812415120        5.4189966085
 O       -11.7938269041        8.8986008300        4.7170637140
 C        -9.6097312013        9.4590580623        5.5209637764
 C        -9.2868722696       10.1353670612        4.1973784612
 C        -9.1390351930        9.0477644641        3.1064857462
 O        -9.0471122554        7.9110089351        3.4409378291
 C        -8.7387022166        9.5173337948        1.6539516795
 C        -9.7376676352        8.8263919508        0.7255903828
 O        -9.6290660491        7.5759807893        0.5982988036
 C       -10.9240645765        9.5489851805        0.0794377853
 C        -8.6658063087       11.1094162358        1.5708636414
 C        -7.3023160882        8.8922579435        1.2945780693
 C       -12.1046854387        7.0921868924        7.1512711204
 C        -9.6474889836        6.6921689323        6.7878639953
 C       -12.2046227575        4.4842136291       -0.3714230319
 C       -13.6180704256        2.9279065420        1.1191292296
 C        -9.4785448649       -3.2306494121        1.4093789570
 C        -7.5843081447       -1.6509421739        0.7627362267
 C       -12.2693769736        1.6985835440       -4.2394800970
 C       -11.8410857631       -0.4906059697       -5.2456056753
 C        -4.1374851631        1.0917289550       -6.3695920626
 C        -5.3876606020        2.6777302869       -4.8661775539
 H        -5.6652689909        3.3008223306       -9.3172848876
 H        -6.0109119119        1.5893862987       -9.2081112414
 H        -4.3907575014        2.1838020303       -8.7765235129
 H        -8.2853598124        1.6661509497       -6.3892485100
 H        -7.7704710356        1.8788282928       -4.8201879678
 H        -8.2585528029       -0.4439390270       -4.2404392261
 H        -9.3843121732       -0.5651367124       -5.6034529767
 H       -10.3439352496       -2.0568321439       -3.2781171234
 H       -12.0328923551       -2.3936964861       -3.0930362255
 H       -10.9327372658       -3.3654106654       -1.1480671403
 H       -11.6847495798       -1.8182477091       -0.5746151731
 H        -9.1707302400        0.8045685657        0.2266792698
 H        -8.9225452707        1.0110912409        1.9678305497
 H       -11.6814106635        1.2451136638        2.0132320587
 H       -11.5606806288        1.3559056867        0.2420213650
 H       -12.6148626289        4.0733160785        3.9536831446
 H       -14.1009866442        4.7910397430        3.4785008035
 H       -13.3856589824        6.0500746732        5.3350699251
 H       -12.8331804828        6.9898456514        3.9292534055
 H        -8.7340307045        8.8787240490        5.8690065028
 H        -9.7520068193       10.1283207156        6.3347933830
 H        -8.2790008344       10.6618812698        4.1924893683
 H       -10.0808642993       10.9139984333        3.9778570968
 H       -11.7131525442        8.8758613605        0.3330943509
 H       -10.8065110127        9.5807795911       -0.9893173230
 H       -11.0277188734       10.4686181707        0.6424244164
 H        -9.6705722632       11.6204475775        1.3817404966
 H        -8.0316320619       11.4886097299        0.7250809965
 H        -8.1449963385       11.6385067033        2.4519477882
 H        -7.3943855639        7.8217575169        1.3794058396
 H        -6.4806615866        9.1458732780        1.9958955424
 H        -7.0222795312        9.2048868249        0.2235975517
 H       -12.1466222249        6.0793088123        7.6107266316
 H       -13.0700747324        7.4387425009        6.8203958079
 H       -11.8359627152        7.8041296294        7.9144451612
 H        -8.6864119461        6.9810922590        6.2558707772
 H        -9.6133505549        5.5970620664        6.8806775743
 H        -9.6283208665        7.0395192628        7.8899364151
 H       -12.0954425800        3.6176867664       -1.1809851515
 H       -11.2364007826        5.0521567524       -0.3497919360
 H       -13.0050075350        5.2005267371       -0.5598887457
 H       -14.4338316388        3.6057447469        1.3178437077
 H       -13.5641217199        2.1270792733        1.8692309382
 H       -13.8376980207        2.5278009026        0.1013516589
 H        -9.0683906317       -4.1122620272        0.9878942860
 H       -10.5476657400       -3.3821661596        1.4951960294
 H        -8.9845342739       -3.2283574556        2.4216798572
 H        -6.9856676272       -2.4745888860        0.2768360395
 H        -7.2258231791       -1.6056396179        1.8284317847
 H        -7.2860594858       -0.7995434880        0.1793615536
 H       -13.2803853249        1.4467654825       -3.9616249010
 H       -12.1486795030        1.9916783816       -5.3018442185
 H       -11.7667570308        2.4150038682       -3.6324467267
 H       -11.5113894549       -0.0254822486       -6.1731946595
 H       -12.9057693414       -0.6561001216       -5.2115463692
 H       -11.4454332463       -1.4904802871       -5.0709445957
 H        -4.0614994640        0.3006485197       -5.6566398133
 H        -3.3343215913        1.8083054486       -6.3586080705
 H        -3.9892427018        0.5222855109       -7.2690352164
 H        -5.6546038075        2.1509752413       -3.8932117753
 H        -5.9367028557        3.5664508460       -5.0257235142
 H        -4.3244879877        2.9878305007       -4.8323339370
 Na       -9.5753372979        5.8436215518        2.1732442628
