117

 C        -5.5344941268        2.5760817173       -8.7488254930
 C        -6.0264913250        2.6880471220       -7.2872712456
 O        -6.8601127197        3.5467757011       -7.0229584535
 C        -5.3677562808        1.8388527258       -6.1650587756
 C        -6.5380993033        0.6934904109       -6.0670644921
 O        -6.2527074440       -0.4571863056       -6.2749425885
 C        -7.9954420419        1.1697882385       -5.8040603503
 C        -8.8165081286        0.0740755762       -5.0633813364
 C        -9.9347627045        0.8552889023       -4.2290836440
 O        -9.6289540359        1.7645264816       -3.4898947868
 C       -11.4172870150        0.3293315654       -4.0556060764
 C       -11.5623258549       -0.4361298929       -2.6785078313
 O       -12.0537549215        0.1416843976       -1.7004003904
 C       -11.1412058370       -1.8287459475       -2.7212205918
 C       -10.7989547432       -2.4586395031       -1.3597206811
 C        -9.4798477395       -1.7631019975       -0.8427099304
 O        -8.6870776898       -1.3534835345       -1.6969096834
 C        -9.1311112483       -1.8114166352        0.6234229003
 C       -10.0226822199       -0.7327519797        1.4123947709
 O       -10.6509629563       -1.1422157735        2.3520722049
 C        -9.7625134583        0.8221688880        1.3219857573
 C       -11.1089947906        1.4682970625        1.2354611946
 C       -11.0325200181        2.9581641397        1.3559568977
 O        -9.9983500461        3.4832507768        1.6458658353
 C       -12.3322700131        3.8432228496        1.0673878207
 C       -12.3952890664        5.0729121830        2.0824016386
 O       -11.9129244222        6.1277564296        1.6845784366
 C       -13.1241525975        4.9903405914        3.4167080476
 C       -12.9104126861        6.0146673309        4.5720999672
 C       -11.4089715511        6.0691303043        5.0307768617
 O       -10.5086035119        5.5317321967        4.4372760979
 C       -11.0506698758        7.1223051706        6.1410390821
 C       -10.8971999776        8.5114860802        5.4780381474
 O       -11.8225588532        8.9334392866        4.8267243295
 C        -9.6545650347        9.4376269648        5.6525774586
 C        -9.3819124572       10.0857036300        4.2817201628
 C        -8.9538186684        9.0753071703        3.2013709058
 O        -9.0194683660        7.8632248278        3.4164014705
 C        -8.6247282333        9.5753076363        1.7316939099
 C        -9.7365724740        8.7976861839        0.8014435024
 O        -9.6425524890        7.6512807534        0.5701400491
 C       -10.9690846096        9.6013180604        0.2614912760
 C        -8.6960698016       11.1426781412        1.5734864504
 C        -7.2036566843        9.0872111695        1.4519039283
 C       -12.1372080027        7.3586814791        7.2454264939
 C        -9.7482897822        6.5881544310        6.7343721386
 C       -12.2063323163        4.3177671567       -0.4623785341
 C       -13.5916438287        2.9869555602        1.3607512336
 C        -9.5147504755       -3.1339760527        1.1833240745
 C        -7.6468537577       -1.4842009040        0.8555186672
 C       -12.2703241298        1.6128134613       -3.9161902187
 C       -11.9447832493       -0.5165717997       -5.3099039427
 C        -4.0972422723        1.1153903354       -6.5971274217
 C        -5.2224796923        2.6348710419       -4.8756989563
 H        -6.3062081712        3.0674597885       -9.4166484409
 H        -5.3390756927        1.5115260551       -9.0744107420
 H        -4.6525480263        3.1289285199       -8.8284143320
 H        -8.4792065416        1.4138509910       -6.7425106828
 H        -7.9082952857        2.1880695135       -5.2676621813
 H        -8.2299437845       -0.5831861400       -4.3783962545
 H        -9.2761796379       -0.5382223253       -5.8437430322
 H       -10.3570948655       -2.0202363880       -3.4122395580
 H       -11.9999710710       -2.3598610207       -3.2047073307
 H       -10.5570485277       -3.4924782569       -1.6264167400
 H       -11.6144235443       -2.4472355707       -0.6685791542
 H        -9.0893123962        1.0386649533        0.4896151872
 H        -9.3349320411        1.1042238305        2.3471311096
 H       -11.8654296748        1.0741882427        1.9180215373
 H       -11.5133790390        1.2979145010        0.3254093126
 H       -13.0121937283        4.0771827527        4.0154843209
 H       -14.2334122488        5.0637102184        3.2751649908
 H       -13.4758181539        5.6561148259        5.4637611212
 H       -13.1059111723        7.0847733255        4.3288644365
 H        -8.7812194813        8.9151545126        6.0086902749
 H        -9.8400116419       10.2070240041        6.4520628551
 H        -8.6312111695       10.8190638661        4.3529702204
 H       -10.2680857596       10.5530980392        3.9473436357
 H       -11.8694219827        8.9434989286        0.2703003055
 H       -10.6005761435        9.7499494604       -0.7816773828
 H       -11.0180069357       10.5080603887        0.8230590543
 H        -9.5066836339       11.5627070340        2.0489929722
 H        -8.8429630722       11.4719331850        0.5539546179
 H        -7.7833992690       11.6277069135        1.8721600813
 H        -7.2574081893        7.9927363853        1.3776119063
 H        -6.4801569480        9.3555817776        2.2402911916
 H        -6.8576399511        9.4720265472        0.5282896476
 H       -12.4318079266        6.3626849836        7.5556607442
 H       -13.0266530084        7.8852224866        6.8960606089
 H       -11.7413018193        8.0000831143        8.0961226947
 H        -8.9147514983        6.6501374320        6.1055384306
 H        -9.9160188942        5.5585793833        7.0764217312
 H        -9.5574919679        7.0898736256        7.6347195413
 H       -11.8724320070        3.5867616787       -1.1104184986
 H       -11.6722457759        5.2444226492       -0.5825243061
 H       -13.2601409330        4.6209416214       -0.5822391975
 H       -14.4692413507        3.5327358229        0.9031989542
 H       -13.7284823321        2.8605951960        2.4597115025
 H       -13.5480667120        1.9962151101        0.9056474444
 H        -8.8776053583       -3.9570219349        0.7678607999
 H       -10.5576055622       -3.3512021613        0.9367554694
 H        -9.3768778318       -3.1866577235        2.2331764371
 H        -6.9670674423       -2.1934548432        0.3634763762
 H        -7.4733058627       -1.5258975300        1.8990995855
 H        -7.3146616716       -0.4802305387        0.3978779982
 H       -13.2760396312        1.2535202653       -3.7106570954
 H       -12.1642535577        2.1610616590       -4.8067881125
 H       -11.7860743401        2.1492142979       -3.1056447383
 H       -12.1388282957        0.2514505036       -6.0466441491
 H       -12.8707315548       -1.0049262759       -5.0076565873
 H       -11.2751628920       -1.3174799686       -5.5831601572
 H        -3.3791224366        0.8593874676       -5.7608407182
 H        -3.5407082207        1.6830303998       -7.3525390153
 H        -4.2893868742        0.1594554433       -7.1040055838
 H        -4.5009487303        2.1226071303       -4.2768903016
 H        -6.2393294268        2.7783953000       -4.3383342756
 H        -4.7675179454        3.6028729405       -5.0749507891
 Na       -9.5988774794        5.8075240621        2.1332576623
