117

 C        -6.0706533228        3.0789115553       -8.8849826034
 C        -6.0327423294        3.0694019891       -7.3389624402
 O        -6.6886041192        3.9425352485       -6.7841986134
 C        -5.4161122103        1.8411761417       -6.5032602636
 C        -6.6069948538        0.8701993497       -6.2476118871
 O        -6.4038754056       -0.3178110824       -6.2900854984
 C        -8.0105855816        1.4198360900       -5.9911126907
 C        -8.7819354084        0.4247282030       -5.0797490781
 C        -9.9681375751        1.0734442347       -4.2304419498
 O        -9.8701718001        2.1743050835       -3.7751690315
 C       -11.3822599407        0.2957073479       -4.0194237824
 C       -11.2951676308       -0.5876857618       -2.6906773826
 O       -11.4971738801       -0.1458168604       -1.5749999739
 C       -10.7342166333       -2.0209826944       -2.8145236687
 C       -10.1318319435       -2.4869853508       -1.5552905137
 C        -9.0876177079       -1.4589602093       -0.9434456551
 O        -8.5710062661       -0.5706136029       -1.6330471162
 C        -8.8048070036       -1.6256276171        0.5826610717
 C        -9.9274127536       -0.7196852443        1.2029023511
 O       -10.9029287369       -1.1445787368        1.8190057946
 C        -9.7878899116        0.8227875675        1.1222907738
 C       -11.1477677921        1.4224542868        1.3799935080
 C       -11.1300056227        2.9562381691        1.5112186972
 O       -10.1227875828        3.6135820223        1.5943986924
 C       -12.5428759491        3.7900622617        1.1411892482
 C       -12.5450472635        5.0059728566        2.0929195107
 O       -12.0274801158        6.0776034486        1.8077560143
 C       -13.2475562520        4.8192358149        3.5240946313
 C       -13.0779936736        5.9511497419        4.4793925424
 C       -11.5848902565        6.0121806498        5.0473899404
 O       -10.6775395812        5.4487622678        4.4763465015
 C       -11.2325648655        7.0007032725        6.2877862912
 C       -10.9890085614        8.3400666651        5.5697625061
 O       -11.8971199441        8.8227690913        4.9426297245
 C        -9.6309339881        9.0984541215        5.7446313109
 C        -9.2238991058        9.8583115401        4.4715624990
 C        -9.0540877243        8.9175694415        3.3174405934
 O        -9.1004954801        7.7019835216        3.5192047536
 C        -8.6504160893        9.4054999807        1.8942557458
 C        -9.6700887414        8.7730016920        0.9167062500
 O        -9.6704314594        7.5892266906        0.7899253178
 C       -10.7348798513        9.6207259043        0.2580744566
 C        -8.6783609733       11.0321911883        1.8089182575
 C        -7.1912036228        8.8375809809        1.5766089487
 C       -12.4718054305        7.1843656844        7.1810871737
 C       -10.0419065873        6.3665460285        7.0838797302
 C       -12.3909362727        3.9882419954       -0.3814184577
 C       -13.7708240265        2.8809263940        1.4887956140
 C        -8.9892070193       -3.1023859618        1.1058268215
 C        -7.3126102552       -1.1549792604        0.9532664010
 C       -12.4370556676        1.4215178976       -3.8932562046
 C       -11.7976607645       -0.5983827607       -5.2784346584
 C        -4.2215945280        1.0767396508       -7.2585317667
 C        -4.9967043065        2.3485560469       -5.0897210667
 H        -6.5803307503        4.0220448808       -9.2353194984
 H        -6.7758343787        2.2724079381       -9.1168812130
 H        -5.2136590646        2.9127267684       -9.3936738257
 H        -8.5642749974        1.5181417614       -6.9124096882
 H        -7.8666402480        2.3712317423       -5.4959323511
 H        -8.0915089534        0.0022100374       -4.3382789200
 H        -9.0987616791       -0.4216349579       -5.6659989418
 H       -10.0284579836       -2.1368305569       -3.6112801142
 H       -11.6531690635       -2.6649666396       -3.0533395207
 H        -9.6687253847       -3.4804635367       -1.5645676131
 H       -10.9439903169       -2.5758314537       -0.7845729105
 H        -9.3492009209        0.9939076220        0.2045131551
 H        -9.1094839294        1.1441476633        1.9048911665
 H       -11.5836682268        0.9700770905        2.3638781199
 H       -11.8389191601        1.1843732311        0.5865470149
 H       -13.0695785474        3.9412924037        4.0861100991
 H       -14.3158859640        4.6615755866        3.4840842541
 H       -13.7026036779        5.9015114781        5.3347749588
 H       -13.1228718572        6.8997568319        3.9787648568
 H        -8.8648948808        8.4062347990        6.0154857052
 H        -9.8366338339        9.8172053107        6.5492219797
 H        -8.3579753664       10.5796442519        4.5417680727
 H       -10.1599999547       10.4442492034        4.1986991132
 H       -10.7386004378        9.4426055651       -0.7998766693
 H       -10.5553930841       10.6273976050        0.5874478114
 H       -11.5914998496        9.2156367494        0.6836592598
 H        -9.2433956085       11.4777139946        2.5922400444
 H        -8.9490388637       11.3481405283        0.7950037331
 H        -7.6051697177       11.4720497776        1.9895521582
 H        -7.2783633427        7.7564954206        1.5163588949
 H        -6.4911718169        9.1391385935        2.3936801505
 H        -6.7956141896        9.1765408709        0.6485324682
 H       -12.6587414638        6.3780189210        7.8474851302
 H       -13.3303530637        7.4799538658        6.6150858310
 H       -12.1869764963        7.9971533769        7.8758246890
 H        -9.0794539929        6.6645530050        6.7770024325
 H       -10.1405560842        5.3133067580        6.7751643314
 H       -10.1466190115        6.4827382920        8.1330109029
 H       -12.1533491280        3.0930698710       -0.8534316812
 H       -11.7017786434        4.7792239345       -0.5927089050
 H       -13.4254152931        4.1409663967       -0.6927746337
 H       -14.6474466286        3.5017559169        1.4943969616
 H       -13.7604488550        2.4432171510        2.4604866397
 H       -13.9183641293        2.1466447147        0.7414565372
 H        -8.1908365911       -3.7818796227        0.7337666569
 H        -9.9896624262       -3.4916758958        0.8525801430
 H        -8.9742023121       -3.0024463419        2.1568658672
 H        -6.6402337497       -1.9113055877        0.6211781424
 H        -7.2086040081       -0.9958711662        1.9597256687
 H        -7.1138426635       -0.1544707808        0.5214664219
 H       -13.3708540233        0.9352029549       -3.6139001229
 H       -12.5382755305        1.8770724716       -4.8502052936
 H       -12.0544669627        2.0614177980       -3.0713022738
 H       -12.2564614080        0.0252220862       -6.0341061540
 H       -12.5400831186       -1.2712059201       -4.8355639186
 H       -10.9367625970       -1.0417242016       -5.7515095780
 H        -4.3470206589        0.0215905147       -7.5763196084
 H        -3.3913913305        0.8537267430       -6.5858893028
 H        -3.8059467068        1.6732061590       -8.0736077424
 H        -5.1979045884        1.6949744207       -4.3126949557
 H        -5.5162298553        3.3169626468       -4.7822520158
 H        -3.9459187013        2.5542133956       -5.0744489226
 Na       -9.6698172078        5.8189110299        2.2071689420
