117

 C        -5.8323507353        2.9537500177       -8.8052252408
 C        -6.0489847472        3.0760669299       -7.2980388915
 O        -6.7385045442        3.9482912069       -6.8162415868
 C        -5.5503013617        1.8043837126       -6.4489070052
 C        -6.6596602411        0.7419420718       -6.1922970466
 O        -6.3970707290       -0.4291751352       -6.2329586107
 C        -8.0726965918        1.2634007989       -5.7996093522
 C        -8.8368113605        0.2026160546       -5.0683147256
 C        -9.8808066220        0.9599172559       -4.3193453943
 O        -9.6109173895        2.0187938027       -3.7752727187
 C       -11.3496394187        0.3178753594       -4.0974084129
 C       -11.2045130284       -0.4542493069       -2.7228591645
 O       -11.5403071869        0.1184253883       -1.6957275562
 C       -10.7768824057       -1.9612290237       -2.8470120533
 C       -10.2712745791       -2.5772638395       -1.5195198284
 C        -9.2667674087       -1.6646663975       -0.9066344541
 O        -8.8454686956       -0.7143804479       -1.4872977135
 C        -8.8710180472       -1.7235418193        0.6341295232
 C        -9.9130098226       -0.7733647959        1.2850257245
 O       -10.8488599993       -1.1878741013        1.9284792936
 C        -9.8426212258        0.7303333692        0.9441726228
 C       -11.1221474291        1.3659076587        1.4201180932
 C       -11.1063980428        2.9194817316        1.4809062669
 O       -10.1084680842        3.5793931149        1.7405255631
 C       -12.5443593218        3.7229344509        1.1921059665
 C       -12.4833610728        4.9647853883        2.1799591911
 O       -11.8994710852        5.9993066138        1.7733059338
 C       -13.2231808492        4.8560705100        3.4200807338
 C       -12.9583874594        6.0584842877        4.4125854731
 C       -11.4778872275        6.0963852311        4.9807339201
 O       -10.5898736746        5.4318687614        4.4939515382
 C       -11.2067096977        7.0114100227        6.2007252873
 C       -10.9160207590        8.4154046664        5.4921684031
 O       -11.8757051636        8.9006916497        4.9124373798
 C        -9.5956398671        9.2140933405        5.7229886653
 C        -9.3261773691        9.9694617887        4.4363220268
 C        -8.9434084660        9.0302417511        3.2993563643
 O        -8.9918065568        7.8387094086        3.5149230402
 C        -8.6537930844        9.5599279377        1.8922945016
 C        -9.7223319904        8.8224001227        0.9210982419
 O        -9.6045591438        7.6281078999        0.5816834867
 C       -10.9133897406        9.6045696323        0.2794073701
 C        -8.5409729708       11.0866238108        1.7380928584
 C        -7.2541580466        9.0177022669        1.5565404161
 C       -12.3976884075        7.1111853250        7.1602995121
 C       -10.0450112975        6.3814270696        6.9660082352
 C       -12.5436577730        4.3767126357       -0.2234743001
 C       -13.7392863958        2.7465060572        1.3675170602
 C        -9.1352506199       -3.1316866675        1.2627168855
 C        -7.3876661579       -1.3276856493        0.7304526165
 C       -12.3510994386        1.5324199659       -3.8341360233
 C       -11.8266497151       -0.6496858837       -5.2254228324
 C        -4.2695411324        1.1029490535       -7.0904464287
 C        -5.1408524714        2.5052236726       -5.0997255581
 H        -6.4594841492        3.6478463565       -9.3246755204
 H        -6.0705060904        1.9641098933       -9.1489413505
 H        -4.7310971022        3.1518621323       -9.0746481283
 H        -8.5588168782        1.4687609727       -6.7784204641
 H        -8.0999264770        2.1779270541       -5.1500197477
 H        -8.1913219252       -0.3607564820       -4.3796496023
 H        -9.3676043517       -0.5340871930       -5.6961576529
 H        -9.9055130117       -1.9565517609       -3.5831644792
 H       -11.5560006330       -2.5534818372       -3.3009168800
 H        -9.6868027299       -3.4987813013       -1.6156362421
 H       -11.0425793321       -2.8188195286       -0.8370893138
 H        -9.6602303345        0.7955451229       -0.1880460929
 H        -8.9482745885        1.0580111974        1.5032635746
 H       -11.4183178662        1.0395740607        2.3518954871
 H       -11.9005497093        1.0163745156        0.7316962462
 H       -13.1853791485        3.8531469723        3.9191113203
 H       -14.3094528347        4.8231325131        3.2228867873
 H       -13.5287331106        6.1695229628        5.3906338989
 H       -12.9860029204        6.9886604926        3.7969375308
 H        -8.7350700019        8.6128568227        6.0838832478
 H        -9.8727406709        9.9795810906        6.4596816577
 H        -8.6078641002       10.7218342605        4.5632857956
 H       -10.2330060751       10.4366062514        4.1927174672
 H       -10.9555266033        9.1198656463       -0.6783806100
 H       -10.6515287725       10.6765499561        0.2925798810
 H       -11.8235502377        9.3135383340        0.8468035032
 H        -9.4670767134       11.6143007667        1.5135973856
 H        -7.8922850669       11.2292226304        0.9435310085
 H        -8.1439198974       11.5016592098        2.5841855714
 H        -7.2247038292        7.9603323850        1.5725949827
 H        -6.5458098324        9.5376054201        2.1737552763
 H        -6.9908013001        9.2428149330        0.5037802509
 H       -12.9263268091        6.1172422888        7.1214155796
 H       -13.1289049843        7.8172739953        6.7552207164
 H       -12.1287205327        7.3287060518        8.2008538235
 H        -9.1105214415        6.4510015697        6.4142628125
 H       -10.2613114797        5.4251626681        7.3327359886
 H        -9.9102506505        7.0519586071        7.8430312073
 H       -12.6154051136        3.5581762542       -1.0045022491
 H       -11.5930892042        4.8905325902       -0.2586588933
 H       -13.3316497384        5.0720062849       -0.3200447155
 H       -14.6954550843        3.2772853488        1.1251117009
 H       -13.8666390913        2.3338725779        2.4109655655
 H       -13.6124889231        1.8430982475        0.6939226553
 H        -8.6461826160       -3.9093862542        0.7072757213
 H       -10.1861835933       -3.3368328435        1.3396233962
 H        -8.8444740466       -3.0995429340        2.3503135013
 H        -6.7531101503       -2.1487148424        0.3506525613
 H        -7.1779049006       -1.0065172748        1.7728771231
 H        -7.2463915333       -0.3991885308        0.2779594413
 H       -13.3094381059        1.0697574003       -3.5958907819
 H       -12.4525324690        2.0527682993       -4.7934974238
 H       -11.9207786206        2.0927347044       -3.0563270023
 H       -11.7003359157       -0.0880634713       -6.1492527861
 H       -12.8514119188       -0.8450055097       -5.0551317862
 H       -11.1293544800       -1.4733200034       -5.2790656801
 H        -4.2682724178        0.0281301181       -7.0406355589
 H        -3.3423453363        1.1906331360       -6.5569856425
 H        -4.0737865443        1.4503315086       -8.1006181082
 H        -4.8812341541        1.8227588675       -4.2103670068
 H        -5.9314172674        3.1105721868       -4.7580610660
 H        -4.2333322213        3.1143923958       -5.2515558117
 Na       -9.6941967947        5.8126560357        2.2609657473
