117

 C        -5.5104348280        2.6440699703       -8.7605758976
 C        -6.0063461673        2.8038183397       -7.2770249074
 O        -6.8937201896        3.5888106666       -6.9770870867
 C        -5.4275790225        1.7729173640       -6.2342502651
 C        -6.4826239155        0.6631095621       -6.0649687447
 O        -6.2656022300       -0.5032358957       -6.3010817749
 C        -7.9321920370        1.1704445454       -5.8849225130
 C        -8.8641213015        0.2365694963       -5.1240092765
 C        -9.8994420747        0.8355538198       -4.1869644900
 O        -9.6150325965        1.7718249107       -3.5220525944
 C       -11.4486024446        0.3411692779       -4.1039010661
 C       -11.5279335344       -0.5157967023       -2.7463789065
 O       -11.9021663379        0.1072087588       -1.7601964747
 C       -11.1712929225       -2.0026335035       -2.7438642330
 C       -10.6650396435       -2.4736407259       -1.3611137698
 C        -9.4212692308       -1.7172028867       -0.9730967748
 O        -8.6374166279       -1.2059074388       -1.7370922630
 C        -9.1510246177       -1.8086358951        0.6461182101
 C        -9.9184654863       -0.7694951654        1.5675841001
 O       -10.7126614191       -1.1795266788        2.4059758582
 C        -9.8280001665        0.7314881157        1.2375376379
 C       -11.1264524962        1.4647825133        1.1463199589
 C       -11.0542323287        2.9739793807        1.3478818439
 O       -10.0159999906        3.5500413023        1.6125305129
 C       -12.4374943706        3.8087151679        1.1838144968
 C       -12.3973123204        5.0902593396        2.1202147482
 O       -11.8414004151        6.1257799382        1.6993988096
 C       -13.1040112255        4.9307245894        3.3930420716
 C       -12.8833468127        6.0308415304        4.4821437370
 C       -11.4528858489        6.1336496081        4.9488078848
 O       -10.6183486474        5.4442866386        4.4577654861
 C       -11.0614049566        7.0780258489        6.1918107418
 C       -10.9608661391        8.4982743067        5.4919879118
 O       -11.9021585797        8.9229373155        4.8737131157
 C        -9.6727839894        9.4080160415        5.6259559561
 C        -9.3083326288       10.1262373589        4.3031666421
 C        -9.0721775747        9.0570079426        3.1680145862
 O        -8.9852274001        7.9086989717        3.5266368621
 C        -8.6681275567        9.5196624781        1.7358550776
 C        -9.6396416195        8.8465460596        0.7829327303
 O        -9.6415269422        7.6268661365        0.5814934340
 C       -10.8695296263        9.6695460401        0.3613557760
 C        -8.7427816470       11.0756129151        1.6013952496
 C        -7.1474711439        9.1372859045        1.4052403002
 C       -12.2066723070        7.3427884809        7.2513168254
 C        -9.7392297794        6.4728459365        6.8361736213
 C       -12.2065023394        4.2483498459       -0.3153854481
 C       -13.7081073269        2.9521141250        1.4112196516
 C        -9.4194514735       -3.2266715782        1.1176005693
 C        -7.6622336055       -1.4146048783        0.9161296782
 C       -12.3358995363        1.5728980954       -3.8366076242
 C       -12.0177757029       -0.4326482955       -5.3069860727
 C        -4.0945130144        1.2162549109       -6.7498617298
 C        -5.2133478604        2.5663870009       -4.8916796935
 H        -6.4039964946        2.8543683690       -9.4172221043
 H        -5.0946786226        1.7201989423       -9.0022882075
 H        -4.7950060115        3.4372849645       -8.9810380377
 H        -8.3441647998        1.3930538361       -6.8669607468
 H        -7.8165999215        2.1637955516       -5.3754143207
 H        -8.2818356905       -0.3019689144       -4.3543018094
 H        -9.2516669497       -0.5262669252       -5.8006335910
 H       -10.4527666753       -2.3208628193       -3.5942071531
 H       -12.0629015133       -2.5788438806       -3.0041957594
 H       -10.5893451345       -3.5717152394       -1.3709159591
 H       -11.3566521473       -2.1886340612       -0.6034155923
 H        -9.2132611337        0.7154174890        0.3070961868
 H        -9.3180025262        1.2146320237        2.0709183492
 H       -11.8354427975        1.1362331565        1.8365527295
 H       -11.6231663697        1.2994640520        0.1848503740
 H       -12.9883417538        3.9620858900        3.9187694737
 H       -14.1910004860        5.0013578853        3.2353254294
 H       -13.4449160565        5.8568512591        5.5333448101
 H       -13.0658718820        7.0371878882        4.0589637334
 H        -8.8007164475        8.9018993214        6.0684118474
 H        -9.9110292600       10.2044501303        6.3495672917
 H        -8.4325769260       10.7459633332        4.4338863293
 H       -10.1372699288       10.7699292304        4.0686486949
 H       -11.6425047906        8.9354721225        0.2929850313
 H       -10.6712959762       10.1037076864       -0.6492031387
 H       -11.0174034764       10.3724037208        1.1392914783
 H        -9.4255802399       11.5980381475        2.1788701237
 H        -9.0398661693       11.2828305122        0.6582110613
 H        -7.7520831959       11.5048303903        1.6843364589
 H        -6.9724938673        8.1291944487        1.4194230860
 H        -6.5667936058        9.6709746146        2.1743636404
 H        -6.8123769505        9.4946569588        0.4221677562
 H       -12.5764568413        6.3994575349        7.6476368888
 H       -13.0323094467        7.7766827010        6.7792374048
 H       -11.8846725553        8.0886185524        8.0236019925
 H        -9.1139601747        6.0472543161        6.1192109625
 H        -9.9801524279        5.8032613347        7.6011779240
 H        -9.1733948857        7.2432295174        7.3335218984
 H       -11.7416921547        3.3943871874       -0.7936778736
 H       -11.5332944634        5.0399498893       -0.2914421677
 H       -13.0455377126        4.6142684165       -0.7980771694
 H       -14.4689920265        3.6337189845        1.0955606913
 H       -13.8650200647        2.6675148253        2.4498115200
 H       -13.7719233823        2.0592421319        0.8193624248
 H        -8.7626402454       -3.8892110962        0.5514216654
 H       -10.4352630762       -3.5363898397        0.9614781011
 H        -9.1819553847       -3.4141372880        2.1959312641
 H        -7.0231649675       -2.0937152708        0.3641388926
 H        -7.4589029342       -1.4508872468        1.9508392870
 H        -7.3796941572       -0.4427523888        0.5437517367
 H       -13.3221067460        1.0998937679       -3.7010749761
 H       -12.2851689004        2.2967137848       -4.6472308611
 H       -11.9305761148        1.9599885883       -2.9521042968
 H       -12.1964741046        0.2944177775       -6.1090737141
 H       -12.9436479151       -0.8929980611       -5.0070166936
 H       -11.2932801340       -1.2309077306       -5.4948260323
 H        -3.3023535438        1.1514434245       -5.9177328577
 H        -3.6059676481        1.8442430565       -7.4832686699
 H        -4.1075139636        0.1993112547       -7.2429933736
 H        -4.2602339429        2.1977024357       -4.4638597848
 H        -6.0473256217        2.5131613662       -4.1828486088
 H        -4.9564084626        3.5677708500       -5.0988851026
 Na       -9.6138899253        5.9074813121        2.1438345690
