117

 C        -5.6853056078        2.9541989282       -8.9067656330
 C        -5.9986143596        2.8958837520       -7.3869156687
 O        -6.7557646686        3.7172774464       -6.9260927393
 C        -5.4818378427        1.7427521739       -6.3537640478
 C        -6.5860975435        0.6683925288       -6.1542475431
 O        -6.2165969942       -0.4834597019       -6.2610842953
 C        -7.9932840026        1.2210251559       -5.7759409820
 C        -8.9362167615        0.1410729068       -5.1288876029
 C        -9.9989651385        0.8853652659       -4.2341111752
 O        -9.6157501624        1.8807398306       -3.6170714715
 C       -11.4241513137        0.3458634331       -4.0764876159
 C       -11.3977462847       -0.5125520740       -2.7246578744
 O       -11.5971532107       -0.0156453628       -1.6275759182
 C       -11.0013682807       -2.0122097560       -2.8581661711
 C       -10.6079163703       -2.5262317976       -1.4672059918
 C        -9.3895177073       -1.7030147241       -0.8377752089
 O        -8.7125435085       -0.9216103754       -1.5219958850
 C        -8.9944279867       -1.8476584234        0.6432370158
 C        -9.9242912106       -0.8261742325        1.4006886090
 O       -10.7213508378       -1.1957612504        2.2114410344
 C        -9.8287656196        0.7285454922        1.0299252679
 C       -11.1969554792        1.4616533153        1.2317672870
 C       -11.0453392182        3.0124727067        1.3659804987
 O       -10.0087021230        3.5481847496        1.7197080172
 C       -12.4433948716        3.7556711716        1.1817332177
 C       -12.4872525668        4.9645551160        2.1869437616
 O       -11.9493928438        6.0098798871        1.9083376338
 C       -13.1933281271        4.9066424481        3.5683627826
 C       -12.8609812169        6.1752739060        4.3258188865
 C       -11.4561498386        6.1447508667        4.9429103450
 O       -10.6422049129        5.3632320264        4.4500199574
 C       -11.1460424961        7.0502353780        6.1400555958
 C       -10.9554123384        8.4913621700        5.4807837469
 O       -11.8901311119        8.9644943187        4.8602936439
 C        -9.6525995397        9.2800071514        5.7129777527
 C        -9.3009809640       10.0193415906        4.3877919530
 C        -9.0093097528        9.1012184695        3.2521694065
 O        -8.9565985833        7.8944909512        3.4815748266
 C        -8.6241154407        9.6346373563        1.8150617035
 C        -9.6590726814        8.8863064459        0.8656153435
 O        -9.4899989365        7.7496186573        0.5633376944
 C       -10.9142656821        9.6000515422        0.3208577350
 C        -8.6492168265       11.0932514359        1.6850846197
 C        -7.2939491565        8.9631043521        1.4127403862
 C       -12.3699505227        7.0466862718        7.1780481514
 C        -9.8325756013        6.5603255519        6.9233050143
 C       -12.3800351521        4.3116780627       -0.3329589284
 C       -13.7936846494        2.8610557746        1.3455436255
 C        -9.1379673253       -3.2664546153        1.1522844110
 C        -7.5936894335       -1.4019161655        0.8942382579
 C       -12.3774654405        1.5750933544       -3.8803376379
 C       -11.8684978254       -0.4080856902       -5.3753515308
 C        -4.1480036526        1.2230976233       -6.8163417412
 C        -5.2467847087        2.4194582618       -4.9939027169
 H        -6.6039214385        3.1802422921       -9.4277710833
 H        -5.3486261751        1.9481933981       -9.2738638100
 H        -4.9597833459        3.6855271158       -9.1575678678
 H        -8.4294792443        1.5849541850       -6.7152191320
 H        -7.8747543216        2.0646049203       -5.1311711277
 H        -8.4574159447       -0.6046463710       -4.4884300677
 H        -9.4370494842       -0.4008418700       -5.9288866133
 H       -10.2951574181       -2.1559875495       -3.6089426523
 H       -11.8349622737       -2.6831016433       -3.1788638770
 H       -10.4341105754       -3.6079816598       -1.5271447897
 H       -11.5176516785       -2.3959882179       -0.7968875340
 H        -9.5468920401        0.7328100473        0.0199286778
 H        -9.0275286602        1.1455801334        1.6509555435
 H       -11.7755806522        1.1773057271        2.2171151414
 H       -11.8727496288        1.1183007307        0.4235851002
 H       -13.1277407952        4.0419328103        4.1678655833
 H       -14.2791299856        4.9925501216        3.5692312411
 H       -13.4321572177        6.3672664476        5.1095978706
 H       -12.8709320971        6.9248531530        3.5476066751
 H        -8.8111992757        8.6815813721        6.0332381366
 H        -9.8220231373       10.0482243789        6.4765740304
 H        -8.3931496224       10.6800309006        4.5730288327
 H       -10.1638990438       10.6969662105        4.0710533651
 H       -11.3229201096        8.8167088525       -0.3323313129
 H       -10.6344259794       10.5179079674       -0.1177002244
 H       -11.5395195872        9.7349476481        1.1969343885
 H        -9.7368960284       11.3666630841        1.5658528628
 H        -8.1309486950       11.5734823890        0.7455740309
 H        -8.3049009634       11.5574155506        2.6508904734
 H        -7.2963704965        7.8219071839        1.5058831213
 H        -6.4705006348        9.5097967061        1.8630534343
 H        -7.1771157051        9.0583643604        0.3367330984
 H       -12.6672545211        6.0787252230        7.5004120832
 H       -13.2917606021        7.4756658760        6.7304857816
 H       -12.0451821553        7.6760143545        7.9805087155
 H        -9.3476498502        5.7556804849        6.2957859714
 H       -10.1484525485        6.1740213781        7.9645336844
 H        -9.0077271498        7.2587010723        7.0940053719
 H       -12.4589190123        3.4260456723       -0.9248916630
 H       -11.3805152007        4.8238075219       -0.4682951337
 H       -13.1921868002        5.1223788037       -0.4956592157
 H       -14.7131207677        3.3644825933        1.6220584001
 H       -13.5875641746        2.1033132675        2.0715387227
 H       -13.8903966103        2.2702644306        0.4639385371
 H        -8.7060250008       -3.9388219735        0.3795122571
 H       -10.1877877070       -3.5542833540        1.3705139227
 H        -8.6435417227       -3.4061353006        2.0784082431
 H        -6.9785960937       -2.1060192358        0.3309174030
 H        -7.3358309753       -1.2807013599        1.9555842320
 H        -7.4586234266       -0.3286791483        0.5557894406
 H       -13.3728814802        1.1909516506       -3.7778658657
 H       -12.2735444651        2.0797814713       -4.8230421948
 H       -11.9450557656        2.1844124566       -3.0444335668
 H       -11.5801047354        0.2285947211       -6.1935603203
 H       -12.9730152551       -0.3718959101       -5.3300521041
 H       -11.4173214167       -1.3928083079       -5.3924819589
 H        -3.7003986303        0.4772480603       -6.2196759071
 H        -3.3310622926        1.9690093880       -6.8310239428
 H        -4.2251521346        0.9126421811       -7.8296212497
 H        -4.4484348140        2.0470232738       -4.4152194116
 H        -6.1725435014        2.3015522389       -4.3667429381
 H        -5.0126424293        3.5001517055       -5.0767985565
 Na       -9.6142471811        5.9682651543        2.2661116169
