117

 C        -5.9642593776        2.9992237184       -8.8678958464
 C        -6.0791455812        3.0056224565       -7.3520808742
 O        -6.6561640511        3.8762933282       -6.7533718304
 C        -5.4314463546        1.9132305603       -6.4790823159
 C        -6.6103799978        0.8526738834       -6.2525503364
 O        -6.4218975288       -0.3546571883       -6.2472567706
 C        -8.0854551668        1.3270221645       -5.8946255273
 C        -8.8308018838        0.3083196977       -5.0766719159
 C        -9.9304222357        0.9735517173       -4.2674609594
 O        -9.6973064622        2.0932285453       -3.7986319604
 C       -11.3536235700        0.3269903523       -4.0379684688
 C       -11.2222414674       -0.5378476163       -2.7282269811
 O       -11.4829482046       -0.0874559414       -1.6462310303
 C       -10.8331107416       -1.9743198828       -2.8898914881
 C       -10.2152948926       -2.4992345186       -1.5861897993
 C        -9.1712423163       -1.5380541181       -0.9010925834
 O        -8.6869215064       -0.5942527150       -1.4939642576
 C        -8.8498564709       -1.6703547897        0.6375032705
 C        -9.8959627937       -0.7385184702        1.2575749137
 O       -10.8456189247       -1.2092991036        1.8218074744
 C        -9.8175254040        0.8626266072        1.0341961294
 C       -11.1632442259        1.4728642256        1.4144189053
 C       -11.1427580802        3.0019420319        1.4273967188
 O       -10.0723128474        3.5315259253        1.6980535358
 C       -12.4858554743        3.7383923666        1.1798359091
 C       -12.5277586707        4.9820524709        2.1385913952
 O       -11.9528856156        5.9614990727        1.7978359115
 C       -13.2177794112        4.8671026657        3.4633343066
 C       -12.9727749255        6.0248583581        4.4796726017
 C       -11.5414680409        6.0393202281        4.9908259466
 O       -10.6491976545        5.4227510609        4.4082761703
 C       -11.2462471133        6.9432058105        6.2481315392
 C       -10.9761016968        8.3863639170        5.5958108927
 O       -11.8685144109        8.8772301359        4.9131815687
 C        -9.6829532503        9.1525436231        5.7393230155
 C        -9.3399105006        9.9294843204        4.4791259205
 C        -9.0209693829        8.9369285673        3.3103023671
 O        -9.0472188119        7.7665132717        3.5277610773
 C        -8.5843298142        9.4608884459        1.8369906971
 C        -9.6529555714        8.8217765760        0.9220807204
 O        -9.6308299979        7.6064569267        0.7475940508
 C       -10.8289861920        9.6903460955        0.2826742058
 C        -8.6567922341       11.0174382201        1.7073429854
 C        -7.1906610208        8.9486755873        1.5560766067
 C       -12.4467864109        7.2104237828        7.1797811381
 C        -9.9986723957        6.3712039610        7.0630000477
 C       -12.5013529221        4.1413260460       -0.3119978223
 C       -13.7492400951        2.8257594489        1.4083160438
 C        -9.0345736320       -3.1163530530        1.2282893176
 C        -7.3996570908       -1.3058364404        0.8013286747
 C       -12.3773317106        1.4768858994       -3.9226563219
 C       -11.8003432413       -0.6238653084       -5.1623396705
 C        -4.3512358789        1.1734172344       -7.1333254028
 C        -5.0297300409        2.4265368343       -5.0973654299
 H        -6.3148394245        3.8866045953       -9.2748460157
 H        -6.4490509870        2.1577985468       -9.3800116600
 H        -4.8743124141        2.9187105713       -9.0526489809
 H        -8.6345888370        1.4052263792       -6.8937929658
 H        -8.1403878994        2.2386510673       -5.3574260475
 H        -8.1438171050       -0.0858526105       -4.3156503356
 H        -9.1836833605       -0.5663174886       -5.6329523680
 H       -10.1196504938       -2.1197565464       -3.7492216348
 H       -11.7815142241       -2.5297874041       -3.1485545401
 H        -9.7039897201       -3.4278453208       -1.6528221280
 H       -11.0164534238       -2.6861808202       -0.8418866616
 H        -9.6518326774        0.8986024007       -0.0464889760
 H        -8.9822096602        1.3171359817        1.5524604651
 H       -11.4247599727        1.2390176520        2.4012323630
 H       -11.9479034755        1.0302688508        0.7583361379
 H       -13.0325814357        3.9508945144        4.0305273194
 H       -14.2916881855        4.7028112827        3.4147747476
 H       -13.4541886965        5.9146812229        5.3837648872
 H       -13.0768502011        7.1211992820        4.0545733992
 H        -8.8902019970        8.3792158346        5.7969242707
 H        -9.6865533931        9.7854934170        6.6183733375
 H        -8.4168041525       10.4639417102        4.6446680826
 H       -10.1002319068       10.6497200941        4.2353038947
 H       -10.8896805152        9.3665219292       -0.7456533550
 H       -10.6714121625       10.6880759647        0.4616224291
 H       -11.7060820547        9.2656101414        0.8092134034
 H        -9.5686897500       11.4027520102        2.0846556538
 H        -8.5570783035       11.1985931295        0.6533063116
 H        -7.8957613448       11.4954408231        2.2170243468
 H        -7.2447071161        7.8217246943        1.5739374818
 H        -6.6049872288        9.3256799723        2.3116661366
 H        -6.7525611449        9.2037256711        0.6266682893
 H       -12.9353789227        6.3052370933        7.5660775294
 H       -13.2317951106        7.8639475112        6.6757668504
 H       -12.0521445043        7.7011476492        8.0150393836
 H        -9.0782352890        6.7564503318        6.7105616029
 H        -9.9639118219        5.3080325711        6.9943222736
 H       -10.0879496556        6.6510357931        8.0649867332
 H       -12.4367918328        3.2628943540       -0.8531928387
 H       -11.7190546464        4.8326535347       -0.5188593739
 H       -13.4930770326        4.5152147111       -0.5191398369
 H       -14.4973735612        3.5682563344        1.1239695161
 H       -14.0338642169        2.5486873084        2.4226031413
 H       -13.8576865114        1.9369342025        0.7551960602
 H        -8.3711799642       -3.8490607695        0.8069862125
 H       -10.0906391313       -3.4252102397        1.1403539129
 H        -8.9319738746       -2.9861591096        2.3027946760
 H        -6.8595971965       -2.1141763435        0.4842967468
 H        -7.1761958522       -0.9977901700        1.8333132882
 H        -7.2004616956       -0.4116518143        0.2900322352
 H       -13.2772501217        1.0008169852       -3.6501748230
 H       -12.5065830208        1.8950608416       -4.9210010420
 H       -12.0049818387        2.1606304481       -3.1429661716
 H       -12.0823230642       -0.0553865927       -6.0235802019
 H       -12.6640864660       -1.1551939603       -4.7496564690
 H       -10.9432001655       -1.1977980755       -5.4563121387
 H        -4.5415479586        0.1343083631       -7.2019585868
 H        -3.4003959649        1.0002673362       -6.5410799353
 H        -4.0295017611        1.5748604487       -8.1133937017
 H        -5.1703686808        1.7039652542       -4.3087105221
 H        -5.6139387623        3.2663106314       -4.8046779964
 H        -3.9519026502        2.7159626174       -5.0499936993
 Na       -9.6935003104        5.8118476762        2.2335498868
