117

 C        -5.7412450439        2.9728244769       -8.8434700008
 C        -6.1348845671        2.9286509401       -7.3592594746
 O        -6.7289164487        3.9046940813       -6.8973960152
 C        -5.5293590926        1.8599026205       -6.4224901942
 C        -6.5928164184        0.6727273582       -6.1587036326
 O        -6.3524045088       -0.5112582432       -6.2361411835
 C        -7.9115778890        1.2080391104       -5.8424706669
 C        -8.8715987949        0.1492036556       -5.1304141357
 C        -9.9384965185        0.9004513167       -4.2254216574
 O        -9.6720060566        1.9240355505       -3.7110193786
 C       -11.3834974546        0.3021032346       -4.0859253140
 C       -11.3255245752       -0.4607769873       -2.7220865630
 O       -11.5560463427        0.1512363860       -1.6828784876
 C       -10.7622624025       -1.8881871072       -2.7556657720
 C       -10.4062513533       -2.6218650931       -1.4620917272
 C        -9.3240858990       -1.7317113791       -0.8912927503
 O        -8.8899030173       -0.8118026170       -1.5729192045
 C        -8.9297590794       -1.8140809538        0.6230461983
 C        -9.9349465535       -0.7890390307        1.3277577562
 O       -10.8207085647       -1.1947862722        2.0926684870
 C        -9.8190405923        0.7361642845        0.9327157977
 C       -11.1198124343        1.4216103126        1.3398435369
 C       -11.1345501933        2.9092620389        1.4232479134
 O       -10.1460983152        3.5347819977        1.7394551667
 C       -12.4488868395        3.7115150772        1.1677317589
 C       -12.5567829076        4.9143279206        2.1787633579
 O       -11.9482006937        5.9565536391        1.8559668351
 C       -13.2539390308        4.9100314687        3.4750285175
 C       -12.9228250053        6.1476601235        4.3073706201
 C       -11.4578892480        6.0460693875        4.9556968677
 O       -10.5571707362        5.3957618847        4.5140148942
 C       -11.1866161773        7.0409467555        6.1946536044
 C       -11.0013963424        8.4954615330        5.6183859376
 O       -11.8006309500        8.9541362187        4.8571849448
 C        -9.6617174869        9.2656724707        5.7311375180
 C        -9.3291849340       10.1039640607        4.4013007279
 C        -9.0243854159        9.0528402749        3.2600998734
 O        -8.9250321837        7.8400684260        3.5171689836
 C        -8.6965086873        9.6181986371        1.7841180887
 C        -9.6990220666        8.8718108650        0.7707864227
 O        -9.5006059992        7.7001967384        0.6012632045
 C       -10.9780331263        9.5769594353        0.2766763652
 C        -8.5835846355       11.1519747837        1.7791155057
 C        -7.2277640945        8.9175134668        1.4641018432
 C       -12.4090737788        7.0471977788        7.1309159207
 C        -9.9239518617        6.4394206226        6.9008470832
 C       -12.4757421030        4.4217378454       -0.2453362121
 C       -13.6673038732        2.8547036423        1.3604074872
 C        -9.1703033658       -3.2690758332        1.2507453106
 C        -7.4545438084       -1.3444078137        0.7897187614
 C       -12.3243867759        1.5168609898       -3.8277957088
 C       -11.8255387935       -0.4859713964       -5.3159458068
 C        -4.2305715821        1.1317831542       -6.9443666974
 C        -5.2203136984        2.5023357916       -5.0183394953
 H        -6.6148926847        3.4944527047       -9.4163124132
 H        -5.5655162543        2.0133207639       -9.3270630565
 H        -4.8753732237        3.5706106011       -8.9368193461
 H        -8.2396319029        1.6797339526       -6.7384386085
 H        -7.7525245709        2.0048705830       -5.0255103753
 H        -8.2586953125       -0.5077387952       -4.4885880496
 H        -9.4301748797       -0.5125898400       -5.7909725275
 H        -9.9448983228       -1.8875389400       -3.4339255751
 H       -11.4959919886       -2.5166275883       -3.2533689067
 H       -10.0390287777       -3.6631076461       -1.6589981024
 H       -11.2496755883       -2.7177509984       -0.8012936658
 H        -9.5833133868        0.7767190608       -0.1445645197
 H        -8.9205544256        1.0000527422        1.5588327030
 H       -11.4787132535        1.1062787825        2.3910065680
 H       -11.8607013319        1.0322501270        0.7072601036
 H       -13.0774262503        3.9916157589        4.0484317367
 H       -14.3535968688        4.8488197759        3.5048226921
 H       -13.5406159211        6.3288287497        5.2517421987
 H       -12.8892329682        6.9563098247        3.6679757430
 H        -8.8139576500        8.6225869864        5.8944085237
 H        -9.7273063082        9.9737228629        6.5963161818
 H        -8.4327342850       10.6867092420        4.6080976087
 H       -10.1212237879       10.7768599796        4.0838690563
 H       -11.3066662074        9.0069260123       -0.6025625773
 H       -10.6399898283       10.6542524730        0.1691900852
 H       -11.6604625380        9.4435615497        1.0879446721
 H        -9.4617685546       11.7015362803        1.4535934742
 H        -7.7754422506       11.4862916356        1.1393554270
 H        -8.3421119817       11.4579834758        2.8865760071
 H        -7.1925818614        7.8781973393        1.5307676441
 H        -6.3988702804        9.5420484575        1.9463740456
 H        -7.0772310226        9.0533184907        0.3812121519
 H       -12.8493213449        6.0477411366        7.1374369610
 H       -13.1646149442        7.6300326623        6.6736810538
 H       -12.1978712638        7.4230452324        8.2069171993
 H        -9.2471878642        5.9259212918        6.1844816323
 H       -10.2480801185        5.8170060304        7.7923649576
 H        -9.2911935890        7.2578468405        7.3492031081
 H       -12.7105230957        3.6571485380       -1.0373479950
 H       -11.4684346242        4.9089377426       -0.3599872814
 H       -13.2151957529        5.2667569316       -0.1645592833
 H       -14.6919116634        3.2948890083        1.5111453655
 H       -13.4309409231        2.2193850816        2.2546710239
 H       -13.6350494418        2.1008570879        0.5728952595
 H        -8.7109334307       -4.0052036990        0.5451156589
 H       -10.1927955267       -3.5422037773        1.4711407654
 H        -8.7062118630       -3.3273347487        2.2205534738
 H        -6.7280284999       -2.0887281867        0.2911280855
 H        -7.2356814929       -1.1020510970        1.7970393582
 H        -7.3825211590       -0.2634251300        0.4055918929
 H       -13.3389500957        1.0978226617       -3.6526416973
 H       -12.3143083211        2.0209258187       -4.7648077068
 H       -11.8638874529        2.0777350899       -3.0358943092
 H       -11.4691857987        0.0730801757       -6.1846598698
 H       -12.8868153186       -0.4058820682       -5.3066598775
 H       -11.3840928785       -1.4737013353       -5.2811758504
 H        -4.2292195777        0.0816674247       -6.6085967185
 H        -3.2906931392        1.3676681876       -6.6033443950
 H        -4.1816223500        1.1754383766       -7.9907199644
 H        -4.6218474977        1.8269892654       -4.3897562575
 H        -6.2020685880        2.6024378095       -4.4150843504
 H        -4.6762807186        3.4318198915       -5.0113723761
 Na       -9.6507801003        5.8897720201        2.2798722957
