117

 C        -5.3752908753        1.8799893055       -8.6407287812
 C        -5.8194901209        2.4864303764       -7.2851219025
 O        -6.4989548807        3.5203905621       -7.2752898454
 C        -5.3890897617        1.7138557503       -5.9935882036
 C        -6.6253293582        0.7098776231       -5.6652227545
 O        -6.5513607370       -0.4803697787       -5.8910139668
 C        -8.0002918153        1.2783101692       -5.4116166485
 C        -8.8134476629        0.3140576085       -4.5828159447
 C        -9.9850601785        0.9665834183       -3.8010004040
 O        -9.8445310921        1.7861817975       -2.9445231464
 C       -11.5303408297        0.3780561955       -3.9550919526
 C       -11.8983552962       -0.2490155887       -2.5734391579
 O       -12.3165953695        0.4669133798       -1.6718102303
 C       -11.6176218538       -1.7616211606       -2.3885147877
 C       -11.1062642030       -1.9484678122       -0.9880057856
 C        -9.6228543626       -1.7598261044       -0.7209697441
 O        -8.8030508192       -1.5370842108       -1.5963653047
 C        -9.2457963879       -1.7961692767        0.7800063234
 C       -10.1117113245       -0.6159208633        1.4899568405
 O       -11.0723919926       -0.9047659440        2.1970317460
 C        -9.6856331295        0.8784668743        1.1192960788
 C       -10.9625717031        1.6322584222        0.9020162009
 C       -10.8241670328        3.1132354836        1.1287696098
 O        -9.8350921282        3.6165406237        1.6444034726
 C       -12.1305890902        3.9281349405        0.9138700470
 C       -12.2123637954        5.1115130501        2.0315987871
 O       -11.9280054543        6.2374429160        1.7462463903
 C       -12.8499528735        4.7833078498        3.4285603573
 C       -12.6710338399        5.7393427220        4.5903295345
 C       -11.2242609806        6.0492547976        4.9698289944
 O       -10.3669633452        5.4018615728        4.4585916338
 C       -10.8253918895        7.0990244382        6.0318306052
 C       -10.8075284307        8.5387726850        5.2576982673
 O       -11.8272648002        8.9039375240        4.7583059278
 C        -9.5668273925        9.4804787298        5.4140001885
 C        -9.3523892545       10.1847175197        3.9779588638
 C        -9.0803562283        9.0710802964        2.9681245466
 O        -9.0967528591        7.9278940162        3.2890543083
 C        -8.6868647424        9.4606686670        1.5510238235
 C        -9.8287063808        8.7341816511        0.5874661891
 O        -9.7234230259        7.5296181270        0.2987598302
 C       -10.8474382171        9.6064695146       -0.2172947005
 C        -8.5900109375       10.9192336681        1.3513956653
 C        -7.4318878014        8.6617046284        1.2939963304
 C       -11.9248140318        7.2263989560        7.1570067203
 C        -9.4373093407        6.7291358200        6.7399520545
 C       -11.9379604921        4.4924933127       -0.5585209007
 C       -13.4353621608        3.1132965802        0.9844202068
 C        -9.5430138194       -3.1157699322        1.4948313466
 C        -7.7892767836       -1.5144975576        0.9829477148
 C       -12.4856394451        1.6016939252       -4.3469763020
 C       -11.8060592951       -0.6065383905       -5.1008885887
 C        -4.1828606211        0.8270395490       -6.2043745551
 C        -5.1203885352        2.7893612526       -4.9631967552
 H        -5.5786290964        2.6513774406       -9.4826728223
 H        -5.9268837351        0.9930643300       -8.8400865637
 H        -4.3293853312        1.6042983959       -8.5918617580
 H        -8.4521697107        1.3572386823       -6.4443886275
 H        -7.9957968209        2.2998399926       -5.0818101145
 H        -8.2085119186       -0.1038895112       -3.7505871078
 H        -9.1388899891       -0.5434105118       -5.1796921927
 H       -10.7830347266       -2.0095328162       -3.0677333306
 H       -12.4160246563       -2.3859788131       -2.5391920392
 H       -11.3658928593       -2.9725084116       -0.6834349889
 H       -11.6621370205       -1.2331007474       -0.3641974881
 H        -9.0696876754        0.8037129111        0.1859662041
 H        -9.0295760739        1.2934466723        1.8532519262
 H       -11.7191397768        1.3223557225        1.6258516800
 H       -11.4862540390        1.5414843920       -0.1576063983
 H       -12.4740656511        3.8295807659        3.8335836460
 H       -13.9254315105        4.7024956586        3.3246343990
 H       -13.2234473833        5.3625990722        5.4974694592
 H       -13.0514056798        6.6277562409        4.3310030119
 H        -8.6482029941        9.0658392093        5.8513573313
 H        -9.8562853064       10.2423976267        6.1146206214
 H        -8.5994700630       10.9655893974        4.0060313982
 H       -10.3217528256       10.6272026098        3.7427731050
 H       -11.4488791408        8.8712058045       -0.7804025022
 H       -10.2351976447       10.3031204620       -0.8685321491
 H       -11.4746593811       10.0493753413        0.5290087670
 H        -9.3514067981       11.5227435879        1.8270625679
 H        -8.5042117440       11.1526908556        0.2656902218
 H        -7.6453652299       11.4069054499        1.8768887034
 H        -7.5811208268        7.6703435844        1.5231134207
 H        -6.5879958900        8.9477030262        1.9732754901
 H        -7.1420667207        8.9206011600        0.2529953394
 H       -12.2157017145        6.2531967629        7.6527976130
 H       -12.7728518101        7.6932097592        6.7051604896
 H       -11.6125802576        7.8563675979        8.0377613052
 H        -8.6708961593        6.5484473099        6.0052752245
 H        -9.4779091195        5.7773904720        7.2470895308
 H        -9.0642951291        7.5655930045        7.3823430006
 H       -11.7249822358        3.7033303788       -1.3434634014
 H       -11.1321327004        5.2512670456       -0.4807748001
 H       -12.8724764314        4.9674913144       -0.8943909835
 H       -14.2731739328        3.7102833724        0.5541035681
 H       -13.6749951363        2.8246678439        2.0554655707
 H       -13.3846469232        2.2188639171        0.3102689053
 H        -9.0541089014       -3.9580023270        1.0413208181
 H       -10.5881994221       -3.3630183822        1.4256674603
 H        -9.2517677193       -3.1530141673        2.5823050608
 H        -7.0442369701       -2.2861915165        0.5679903391
 H        -7.4579079636       -1.5268514331        2.0080715467
 H        -7.5852970018       -0.5218986909        0.4658304540
 H       -13.4671703550        1.2022570941       -4.6048191300
 H       -12.0001493711        1.9730657513       -5.2516165438
 H       -12.4938238312        2.2882301769       -3.5576513631
 H       -11.6666242409       -0.1301503292       -6.0956793612
 H       -12.8447804402       -0.9150468254       -5.0181778462
 H       -11.1233382371       -1.4698375802       -5.0724491929
 H        -3.6959592468        0.5585634098       -5.2400371690
 H        -3.5030167063        1.2238218413       -6.9091358470
 H        -4.5921351670       -0.1460284148       -6.5578556269
 H        -4.4483771202        2.4199205011       -4.1377520115
 H        -6.1045154970        3.1213563219       -4.6171745234
 H        -4.7890234900        3.6119261227       -5.5419883605
 Na       -9.6906901799        5.7750592134        2.0949468574
