117

 C        -5.5630256770        1.4116774782       -8.5772761800
 C        -5.7426436196        2.2103870562       -7.2979888547
 O        -6.2690266807        3.3077893423       -7.3423825726
 C        -5.3934549647        1.6091141678       -5.9213552622
 C        -6.6310948149        0.7844848448       -5.3848215025
 O        -6.6220191538       -0.4018228622       -5.5579181008
 C        -7.7883880860        1.4485723823       -4.6521260447
 C        -8.9275542900        0.4755299669       -4.3930997607
 C       -10.0773759658        1.1576943898       -3.6440958820
 O        -9.9148907040        2.0978980677       -2.9070553837
 C       -11.5711594722        0.4402999481       -3.9211118283
 C       -12.0035698216       -0.2832001132       -2.5698702881
 O       -12.4422788315        0.4370564677       -1.6687210716
 C       -11.8901811205       -1.7794496395       -2.2632431968
 C       -11.3771319231       -2.0452271599       -0.8086463064
 C        -9.8833340671       -1.7512144696       -0.6176496837
 O        -9.1492031526       -1.4498687136       -1.5390599092
 C        -9.3047094737       -1.7683510759        0.9071590602
 C       -10.0634310486       -0.5138669957        1.6537696485
 O       -10.9647557614       -0.7955156529        2.3938251406
 C        -9.7653592498        0.9389713289        1.3541589637
 C       -11.0043261017        1.7011760305        0.7998577482
 C       -10.8957873520        3.2238903765        1.1065823657
 O        -9.8538208732        3.7664483996        1.4357286018
 C       -12.1714720297        4.1660382549        0.8067025898
 C       -12.2622151455        5.0689998231        2.0273988642
 O       -11.8842204607        6.2251586598        1.8934297681
 C       -12.7026267036        4.5670558198        3.4590892191
 C       -12.5458364180        5.7544157284        4.4187666907
 C       -11.0210085506        5.9844123436        4.8446659045
 O       -10.1536721381        5.3134838012        4.3101549634
 C       -10.7399606594        7.0174661171        6.0731441200
 C       -10.9010118963        8.4237509298        5.1646359669
 O       -11.9940291706        8.5968383974        4.6554319784
 C        -9.7537989241        9.4573638553        5.1830309563
 C        -9.5036193771       10.1555499564        3.7704211599
 C        -9.0858041456        9.0072949554        2.7707338019
 O        -9.1277357250        7.8828447834        3.1762174737
 C        -8.6242117951        9.3068742381        1.2880393020
 C        -9.6355640839        8.7136503814        0.2857443861
 O        -9.7684991566        7.4744279594        0.2593699210
 C       -10.6755588506        9.6103564634       -0.4398818452
 C        -8.3876834398       10.8478208112        1.0856393231
 C        -7.2640692570        8.5261555367        1.0532632363
 C       -11.8351142362        7.0242028807        7.1053058457
 C        -9.3621271036        6.7697612314        6.6265857787
 C       -11.9934720287        4.9632157855       -0.4564644345
 C       -13.4844372013        3.4344303326        0.6818780364
 C        -9.5654935928       -3.0469888278        1.7014077463
 C        -7.8089909337       -1.4692579629        0.7932868840
 C       -12.6004704594        1.5581943672       -4.1863694547
 C       -11.6058387237       -0.5615294702       -5.0762807989
 C        -4.2130099042        0.6159810870       -5.9783115100
 C        -4.9884440457        2.8269767452       -4.9547651779
 H        -6.6071955321        1.3534136437       -9.0500656641
 H        -5.1836686844        0.3917608934       -8.3699104347
 H        -4.9014362219        1.9585371205       -9.2368847976
 H        -8.1734927443        2.2143767453       -5.3805500139
 H        -7.5636924284        1.9832756734       -3.7144646923
 H        -8.6761324008       -0.3624343190       -3.6926081499
 H        -9.2723694520       -0.0411815977       -5.2853444155
 H       -11.3002356132       -2.3913232286       -2.9865370679
 H       -12.8850726868       -2.0791414701       -2.2852694990
 H       -11.7171016087       -2.9736309220       -0.3476645643
 H       -11.8267686270       -1.2374990498       -0.2418837515
 H        -8.8941596824        1.0602320490        0.6602152002
 H        -9.3952993128        1.3691734375        2.2951667290
 H       -11.8990587916        1.3820718398        1.3260474896
 H       -11.1920911938        1.6348644778       -0.3186823256
 H       -11.9820369881        3.7508208869        3.7416455354
 H       -13.7315201447        4.1731911002        3.6090971731
 H       -13.1317971956        5.6724549192        5.3507947898
 H       -12.9171669056        6.5495909357        3.9299087413
 H        -8.8086835430        8.9826160004        5.4870099322
 H       -10.0819838691       10.1598096200        5.9671468959
 H        -8.7400918146       10.8774587862        3.8334696820
 H       -10.4117197200       10.5946139659        3.4636454918
 H       -11.3462853502        8.9526829441       -1.0192799958
 H       -10.1936082048       10.4980849442       -0.9434058061
 H       -11.2141334895        9.8658954870        0.4380605884
 H        -9.0281951920       11.4336153566        1.6848601923
 H        -8.5071021442       11.2066819914        0.0677314631
 H        -7.3770210776       11.0649725009        1.4295664442
 H        -7.5056003538        7.5444468640        1.3396129784
 H        -6.4430940158        8.9379652669        1.6713365309
 H        -6.9505806768        8.5049424831        0.0268495993
 H       -12.0729614893        6.0564835696        7.5806176709
 H       -12.7146122175        7.3989329429        6.6680341590
 H       -11.4912880077        7.7029586964        7.9397309347
 H        -8.7046866546        6.4088524602        5.9194830448
 H        -9.4442696375        6.0977441620        7.4585237049
 H        -8.9223854231        7.6582635087        7.0082185100
 H       -12.1094712659        4.4162528393       -1.3228758066
 H       -11.0395941534        5.4341747383       -0.4303017536
 H       -12.7384872920        5.7604808004       -0.4886642052
 H       -14.3552559521        4.0071833714        0.4465888581
 H       -13.6706343365        2.9205363667        1.6158403728
 H       -13.3511788298        2.6464859733       -0.0163644741
 H        -9.3450882130       -3.9372246167        1.1395034729
 H       -10.5528532529       -3.1444514802        2.0660225152
 H        -9.0205519716       -3.0435060690        2.6493635381
 H        -7.2464386041       -2.3245448591        0.3679219702
 H        -7.4407121279       -1.2596393402        1.7488437279
 H        -7.4955269518       -0.5156696345        0.2589096309
 H       -13.5833859420        1.0477758326       -4.2350649224
 H       -12.3890378047        1.9744707446       -5.1689121115
 H       -12.5630500026        2.2193998693       -3.3597158372
 H       -11.2337813929       -0.2345326036       -6.0589280611
 H       -12.6298066367       -0.7801367810       -5.3311526400
 H       -11.0689689862       -1.5003640561       -4.8460763840
 H        -4.1673653005        0.1361588153       -4.9647719820
 H        -3.3339863883        1.2004445662       -5.9155185444
 H        -4.2143026435       -0.0258269164       -6.8697471611
 H        -3.9662894284        2.6059120470       -4.6718914871
 H        -5.7107047718        2.8160472292       -4.0877067220
 H        -5.0030296186        3.6862856443       -5.5277923144
 Na       -9.3910148683        5.8498771880        1.9259402881
