117

 C        -5.3859665949        1.7332167585       -8.6286723210
 C        -5.8006939567        2.3948857822       -7.3307561343
 O        -6.4077758579        3.4430755763       -7.2484117052
 C        -5.4184499947        1.6636844879       -6.0094314658
 C        -6.6522122771        0.7440299306       -5.7264499957
 O        -6.5161572236       -0.4481178560       -5.7778590448
 C        -8.0511748742        1.3909369258       -5.2680555740
 C        -8.9392110760        0.4104861621       -4.5001773575
 C       -10.0573958658        0.9854077851       -3.6518441474
 O        -9.8848265016        1.9059684904       -2.8875199538
 C       -11.5508899455        0.3969514515       -3.9710613078
 C       -11.9227091980       -0.1994067156       -2.6076867638
 O       -12.4020234336        0.5051086871       -1.7051341987
 C       -11.6107757737       -1.6722930763       -2.3554528739
 C       -11.1938897397       -2.1040727105       -0.9397856334
 C        -9.6894745360       -1.7646201061       -0.6637733823
 O        -8.8758214858       -1.5684775381       -1.5500789695
 C        -9.2374110657       -1.7634521307        0.8302169887
 C       -10.1004654214       -0.5729660958        1.4894363616
 O       -11.0024800083       -0.7927024360        2.2394227309
 C        -9.7463838642        0.8476744437        1.2403439573
 C       -10.9447422175        1.6589258299        0.8319984675
 C       -10.9016554027        3.1419597891        1.2075479886
 O        -9.8590682683        3.6286267571        1.5417799577
 C       -12.1943915478        4.0599769281        0.8759439191
 C       -12.2863745191        5.1020685640        1.9529503631
 O       -11.9055325177        6.2822109201        1.7669597380
 C       -12.9129503238        4.7224138609        3.3176281134
 C       -12.6648484894        5.7077734704        4.5679958557
 C       -11.1304667758        6.0036573196        4.9760054598
 O       -10.1980825562        5.4236430561        4.4289385766
 C       -10.8072586704        7.1425102759        6.0893687529
 C       -10.7828488091        8.5241156425        5.3683748053
 O       -11.7756111756        8.8385256520        4.6995390235
 C        -9.5982883827        9.4401011635        5.3537631208
 C        -9.5183908928       10.1103221219        3.9469611533
 C        -9.1444040355        8.9864192713        2.8923324282
 O        -9.1839920815        7.8186560469        3.2579120425
 C        -8.6652033545        9.4013757943        1.3864064480
 C        -9.7715679808        8.7599332676        0.4492723499
 O        -9.7961648130        7.5517639886        0.3248455411
 C       -10.8554527973        9.6051688544       -0.2507241790
 C        -8.4880121983       10.9126231858        1.3428590285
 C        -7.2863665377        8.6630407983        1.1561909546
 C       -11.8265061887        7.2612508912        7.1899026444
 C        -9.4901827993        6.8286704062        6.6955597197
 C       -11.8950817093        4.6225597753       -0.5054378676
 C       -13.4394317817        3.1153190692        0.8741552217
 C        -9.6133291070       -3.1328477905        1.4561259504
 C        -7.7153760996       -1.4688195060        0.8968151156
 C       -12.4144217031        1.6642392638       -4.3265373036
 C       -11.7276356431       -0.7882205812       -5.0037753404
 C        -4.1457390077        0.7114805505       -6.2006221256
 C        -5.1181578759        2.8366578545       -4.8912411097
 H        -5.8469026484        2.2159271565       -9.4831368135
 H        -5.6052184681        0.6527470552       -8.5934381660
 H        -4.3502708084        1.8298132889       -8.6423721586
 H        -8.4945429070        1.7270807542       -6.1511352264
 H        -7.9304085973        2.3402300960       -4.6727927367
 H        -8.3173271398       -0.0680293749       -3.7254872988
 H        -9.3031179385       -0.4067868556       -5.1010446024
 H       -10.7854610644       -2.0191818578       -2.9928990913
 H       -12.5141633606       -2.2266303899       -2.5730843965
 H       -11.5445175762       -3.1661503256       -0.8146103799
 H       -11.7169517238       -1.4551641741       -0.2412187603
 H        -8.9139656947        0.9348984802        0.5941971064
 H        -9.3372274783        1.1312522274        2.1974332829
 H       -11.8958139472        1.1959719648        1.3286516625
 H       -11.1873763295        1.6979437988       -0.2415866197
 H       -12.6221553263        3.7800871932        3.7117118517
 H       -13.9791188267        4.6963156226        3.1901654042
 H       -13.1504435587        5.2177606434        5.4703581193
 H       -13.0983749245        6.7299051132        4.4290418743
 H        -8.6693202454        8.9538226087        5.5142761224
 H        -9.6203659965       10.2257278256        6.1269400955
 H        -8.6704535879       10.8507847672        4.0686635884
 H       -10.4907394378       10.6496946668        3.6957277207
 H       -11.2877383791        8.9106129900       -0.9599881344
 H       -10.3775207460       10.4990938199       -0.6882641030
 H       -11.5775724037        9.7631501782        0.5084644213
 H        -9.3871754844       11.6063123438        1.3233391586
 H        -7.8518137414       11.0876936905        0.3817532383
 H        -7.9553362177       11.3693562445        2.1888617429
 H        -7.3750969113        7.5428022165        1.2216798278
 H        -6.6089483140        8.8959991121        2.0378437690
 H        -6.8245170168        9.0795913996        0.2793689676
 H       -11.8432461366        6.4376425904        7.8775666595
 H       -12.7448629647        7.2901585606        6.6230391052
 H       -11.7936042102        8.1607023418        7.8695412615
 H        -8.6422977293        7.0831096943        6.0190066411
 H        -9.3574809299        5.6822228308        6.7609359669
 H        -9.2763796587        7.3614448493        7.6415957659
 H       -11.6876353126        3.7806607383       -1.1489543686
 H       -11.0584129560        5.4063004648       -0.4819882795
 H       -12.8852298136        5.0314163913       -0.9877115907
 H       -14.3005519965        3.8420844512        1.0370301099
 H       -13.4121499555        2.4924155464        1.8087551100
 H       -13.6860052065        2.5752013604       -0.0446363109
 H        -9.0551418520       -4.0090096830        1.0336661770
 H       -10.6558367138       -3.3753493531        1.2369941340
 H        -9.5475185374       -3.1913067163        2.5329610936
 H        -7.1026297850       -2.2874047595        0.5090234045
 H        -7.2561645741       -1.3515064173        1.8833511153
 H        -7.5087281249       -0.5397836782        0.2506176585
 H       -13.4670810690        1.3505409410       -4.4644835491
 H       -12.0187127674        2.0217731928       -5.2397927570
 H       -12.2704501525        2.3194689189       -3.4808157645
 H       -11.6686592172       -0.5185513517       -6.0740640643
 H       -12.7263725189       -1.1864802720       -4.8615152953
 H       -10.9398343048       -1.5304698115       -4.8567461179
 H        -3.7192133007        0.4253942859       -5.2041230733
 H        -3.4070633870        1.2446763971       -6.7362976314
 H        -4.4249714484       -0.2154355478       -6.7115103080
 H        -4.2832950357        2.5580090809       -4.2980908214
 H        -6.0867182856        3.0942792357       -4.3087500947
 H        -4.9712218544        3.6647582060       -5.5334963900
 Na       -9.5980619361        5.7307808002        2.1184924319
