117

 C        -5.4595751627        2.2362409939       -8.7887201997
 C        -5.9480083730        2.6315761483       -7.3675460869
 O        -6.7173424269        3.5777072189       -7.2177270529
 C        -5.4912044393        1.7193450299       -6.0780564574
 C        -6.5764061605        0.5852924003       -5.8828335843
 O        -6.3643981720       -0.5929729181       -6.0803238039
 C        -7.9534190267        1.2196493744       -5.3866085590
 C        -8.8457569114        0.2145736472       -4.8324110094
 C        -9.9203786581        0.8761377963       -3.9862004698
 O        -9.7177808110        1.8063481446       -3.2690812968
 C       -11.4315595293        0.3672332205       -4.0955125963
 C       -11.6747250601       -0.3575281801       -2.6938252824
 O       -12.1941918767        0.3209283976       -1.8031395575
 C       -11.3323859427       -1.7936466311       -2.4981317856
 C       -11.0257570391       -2.2017896825       -1.0944616559
 C        -9.5862044484       -1.8391894580       -0.7160055164
 O        -8.7640691883       -1.4906536924       -1.5423031486
 C        -9.1276202871       -1.8516720463        0.8373031150
 C        -9.9634738465       -0.7043537990        1.4437697465
 O       -10.9287890322       -0.9887488300        2.1495134987
 C        -9.6980642774        0.7780198105        1.1049123120
 C       -10.9753328006        1.5127923612        1.1413097471
 C       -10.9305047835        3.0752313123        1.3591309442
 O       -10.0100661837        3.7683278697        1.7168523602
 C       -12.2705974967        3.8814467907        1.0812150754
 C       -12.4267226857        4.9960048673        2.1394106658
 O       -12.0244541376        6.0925388559        1.7486272645
 C       -12.9753814712        4.7972602927        3.5691707129
 C       -12.7023657426        6.1044035080        4.3645234493
 C       -11.2603460958        6.1282334315        4.8395266965
 O       -10.3662874509        5.5122015772        4.3470392621
 C       -10.9244418729        7.0902138530        6.0646690819
 C       -10.8751232724        8.5029423628        5.3757818290
 O       -11.8164527398        8.9029975380        4.7397892955
 C        -9.6628187487        9.4955525305        5.5488010702
 C        -9.2298617863       10.1762922718        4.2188303576
 C        -8.9134718886        9.0653709194        3.0948722646
 O        -9.1578714337        7.9333305191        3.4246440716
 C        -8.6796114725        9.4647845494        1.6090478219
 C        -9.8037273091        8.7135475354        0.6890435454
 O        -9.7435499183        7.5164653262        0.4736836682
 C       -10.9156381913        9.5496135367        0.0023902975
 C        -8.6454877637       10.9776884061        1.4537528824
 C        -7.3024051468        8.9308497559        1.2591852272
 C       -12.1096338385        7.0569519128        7.0993233706
 C        -9.6187957293        6.6205227911        6.7185782155
 C       -12.0509782900        4.5945085915       -0.3436132008
 C       -13.5324605593        3.0336132523        1.1530769110
 C        -9.4450530342       -3.2171068466        1.4173778209
 C        -7.6679459124       -1.6744124237        0.8948470179
 C       -12.2995122385        1.6999050198       -4.1879021221
 C       -11.7927510197       -0.4648081471       -5.3694339662
 C        -4.1266775670        1.0548294717       -6.3420432006
 C        -5.4807301756        2.6340011901       -4.8499491599
 H        -5.3830142204        3.2314906586       -9.3143521358
 H        -6.1193838413        1.5890986863       -9.3227598944
 H        -4.5051758809        1.8568054915       -8.7827410347
 H        -8.3932399584        1.6829347961       -6.2264695384
 H        -7.8044989003        2.1038320617       -4.7303380032
 H        -8.2116456941       -0.4547189746       -4.2479104338
 H        -9.2847950522       -0.3554737669       -5.6309763519
 H       -10.4333281194       -2.0232373866       -3.1767210545
 H       -12.1769895379       -2.3361276341       -2.9431948684
 H       -11.0716017796       -3.3110154993       -0.9304526414
 H       -11.7596050344       -1.7020840002       -0.4794620027
 H        -9.2110097693        0.8827421262        0.1408824262
 H        -9.0284978456        1.1202884893        1.8808040850
 H       -11.5623289011        1.1821222224        2.0291696421
 H       -11.6555593765        1.2756366629        0.3135045391
 H       -12.5529526300        3.9138532356        4.0546875565
 H       -14.0505232875        4.7173131000        3.5784139376
 H       -13.3457069211        6.2848302414        5.3281093994
 H       -12.7933615692        6.9242592026        3.6288595214
 H        -8.7866871668        9.0606142069        6.0110868350
 H        -9.9603793914       10.2305023214        6.3154935798
 H        -8.3635924548       10.8791857797        4.3832224600
 H       -10.1005123155       10.8099182035        3.8683304820
 H       -11.7987247852        8.9567317024        0.0465715540
 H       -10.5394985519        9.5357151462       -1.0290104402
 H       -11.0254005190       10.4593068861        0.4553832657
 H        -9.5992056892       11.4055588485        1.4611166336
 H        -8.2122175337       11.2468635625        0.4935953881
 H        -8.0009690558       11.5740354102        2.1807810128
 H        -7.2571622595        7.9426469298        1.6256194750
 H        -6.5413777670        9.4221108437        1.9404634818
 H        -7.0026853630        9.0689481044        0.2199318239
 H       -12.2127435290        6.0611918836        7.4726324659
 H       -12.9836776954        7.4208852069        6.6951665557
 H       -11.9354201768        7.7350719642        7.9789264390
 H        -8.7683621684        6.4530304817        6.0684640097
 H        -9.8151417965        5.6572730969        7.2478898123
 H        -9.3745005623        7.3254305020        7.5460658321
 H       -12.0212540668        3.6996785624       -0.9375433852
 H       -11.0261494936        4.9514284375       -0.3714919545
 H       -12.7486867097        5.3857179459       -0.6828812628
 H       -14.3556339735        3.6397446657        1.4569814735
 H       -13.3582519676        2.2783520319        1.8919963375
 H       -13.8011612001        2.6235118118        0.2270493616
 H        -9.1273260523       -4.0995081691        0.8462812080
 H       -10.5004240104       -3.3298806558        1.5532368522
 H        -8.8911984327       -3.3612770579        2.3456882921
 H        -7.0707591790       -2.4212899547        0.3887925423
 H        -7.3217497062       -1.6659105166        1.8426530449
 H        -7.4696692048       -0.7706958350        0.3082231318
 H       -13.3433694162        1.3587371959       -3.9902752413
 H       -12.1508335981        2.0489531836       -5.1997152633
 H       -11.8991745216        2.3940388288       -3.4784739707
 H       -11.3227453078        0.0388420851       -6.2357046944
 H       -12.8645776938       -0.5275625692       -5.4517030355
 H       -11.4594556450       -1.5082352076       -5.2548619949
 H        -4.0786964095        0.0849686632       -5.7845619263
 H        -3.3280763185        1.7275941945       -6.2558511352
 H        -4.0650917135        0.6017106882       -7.3297494555
 H        -6.0823216271        2.1831487286       -4.0785857646
 H        -5.9012469738        3.6386866645       -5.1584293675
 H        -4.5110287410        2.8249965563       -4.5248262935
 Na       -9.5681992224        6.0240248403        2.1744090565
