117

 C        -5.8057131844        1.1341529896       -8.3755358682
 C        -5.8079849680        2.0920686027       -7.1801487815
 O        -6.2968856505        3.1956094151       -7.3712771609
 C        -5.2355691339        1.5886697650       -5.7499776388
 C        -6.5000868758        0.7509573248       -5.1365269870
 O        -6.6731220683       -0.3928880350       -5.5461199771
 C        -7.6083110190        1.4423950489       -4.3322273499
 C        -8.8987720957        0.5467750911       -4.3219998237
 C       -10.2363326691        1.1007845705       -3.6635271079
 O       -10.2043532290        2.0912555746       -2.9659894522
 C       -11.6462070403        0.3495108506       -3.8520655209
 C       -12.0076138908       -0.1882108800       -2.3946064570
 O       -12.3499961015        0.5466372263       -1.4986723687
 C       -11.8323229881       -1.7198875867       -2.1872549168
 C       -11.4835991463       -1.9946706106       -0.7434039648
 C       -10.0070692470       -1.6628215269       -0.5398931515
 O        -9.3556168195       -1.3207489806       -1.5051472263
 C        -9.3602789719       -1.5965226687        0.9336133364
 C       -10.1038436984       -0.5061732780        1.6593497084
 O       -11.0510742949       -0.6537388626        2.4614116127
 C        -9.8218052702        0.9090631246        1.1626989689
 C       -11.1270401788        1.6445028479        1.0072057772
 C       -10.8959131025        3.2184977440        0.9682109764
 O        -9.8280631616        3.7475701717        1.2215651888
 C       -12.1067702491        4.1536366653        0.7665728469
 C       -12.1036551890        5.1476101919        2.0413514406
 O       -11.7769482127        6.2993487561        1.9041944475
 C       -12.5777548053        4.5024228496        3.3572783509
 C       -12.4848602920        5.4021943218        4.6397523640
 C       -11.0439037855        5.8546261986        4.8249642407
 O       -10.1177147333        5.3508397945        4.2384006778
 C       -10.7135085758        7.0226070892        5.8695837621
 C       -10.9482754170        8.4372321775        5.1098662485
 O       -11.9585895087        8.7540782851        4.5623182802
 C        -9.8221073882        9.5500825487        5.1566870977
 C        -9.5827668986       10.0738579440        3.7585770522
 C        -8.9948707022        8.9869952523        2.8327921978
 O        -8.9082706980        7.7900636871        3.1354937066
 C        -8.6100873464        9.2758030888        1.3116035330
 C        -9.6480324877        8.6841633696        0.2696021406
 O        -9.6530588703        7.5068837546        0.0898484089
 C       -10.5754298380        9.6094448715       -0.5837295501
 C        -8.3761323852       10.7340149532        0.9816866204
 C        -7.3018605915        8.5227156843        1.0864208250
 C       -11.8025833044        6.9928391901        7.0342650338
 C        -9.2987810495        6.7584349144        6.3645544380
 C       -11.8950352967        4.9905210794       -0.5328326495
 C       -13.3408523073        3.3491194277        0.6199582802
 C        -9.6615015336       -2.9134303110        1.5038002891
 C        -7.8935430487       -1.3460790496        0.8086184793
 C       -12.6216878600        1.5988420276       -4.0080075729
 C       -11.6592917776       -0.5883374967       -5.0817721873
 C        -4.0474344082        0.6351375614       -5.8698340927
 C        -4.9001323350        2.7852005938       -4.8808389374
 H        -6.7633580690        1.2208414473       -8.8294237718
 H        -5.6382092984        0.1504443444       -8.1203634605
 H        -5.0416882499        1.5213334264       -9.0713419686
 H        -7.8488252816        2.4024519328       -4.7641131023
 H        -7.1948114664        1.5840027788       -3.3258697284
 H        -8.7237265474       -0.4555182785       -3.9724409299
 H        -9.1864590540        0.4331844836       -5.3920326615
 H       -10.9448006423       -1.9719175983       -2.7012648226
 H       -12.6559658671       -2.4140562190       -2.5563472361
 H       -11.5298898094       -3.0699441034       -0.5101421612
 H       -12.2117812461       -1.5073029421       -0.0569540047
 H        -9.2678075254        1.0082664217        0.2463694002
 H        -9.2464073286        1.4534566499        1.9099862787
 H       -11.8382081214        1.4174243662        1.8592932571
 H       -11.6099164728        1.3639301963        0.0656267055
 H       -12.0782750558        3.5845610329        3.5397870341
 H       -13.6221638188        4.2556002418        3.2353054530
 H       -12.7140747561        4.8343811715        5.5501925809
 H       -13.2674904338        6.2911994963        4.6648640606
 H        -8.8630520927        9.1646571358        5.4784768270
 H       -10.2058247801       10.3358990959        5.7832468307
 H        -8.9735606647       11.0340389966        3.7430872257
 H       -10.6240634095       10.2751402913        3.3418101731
 H       -11.4695387965        9.0362773049       -0.7132720985
 H        -9.9698631176        9.6540189975       -1.4458585160
 H       -10.7232784198       10.6188942246       -0.1101066098
 H        -9.3054422117       11.3271469818        1.2530569256
 H        -8.3255011098       10.8249218722       -0.1404867497
 H        -7.4054260072       11.1928224012        1.4091974748
 H        -7.4047155888        7.4414069771        1.3361151124
 H        -6.5318609756        9.0934558111        1.5772940305
 H        -7.0650793927        8.4566620772       -0.0199613794
 H       -12.4193348114        6.0727607002        6.9777645086
 H       -12.5761208783        7.8217245628        7.0568111189
 H       -11.2607281075        6.9926186343        7.9473957682
 H        -8.5732662109        6.8346115047        5.4938812302
 H        -9.2468436922        5.8131461047        6.9014055980
 H        -8.9402465193        7.5184276288        7.1220456083
 H       -12.1430993214        4.2555787400       -1.4332074710
 H       -10.8070650955        5.2612941561       -0.6659688600
 H       -12.5099713835        5.8880759974       -0.6907686947
 H       -14.1479112412        4.0637032710        0.3310691383
 H       -13.7272545250        2.8131776368        1.5141804405
 H       -13.2202792168        2.5071050105       -0.1320691439
 H        -9.4568572838       -3.7224857265        0.8188740771
 H       -10.6669187985       -3.0567619509        1.9242325355
 H        -9.0738507077       -3.0605200392        2.3994506154
 H        -7.4975707355       -2.1658151541        0.1789376983
 H        -7.3659918463       -1.2025954090        1.8154786697
 H        -7.5974561828       -0.4440566723        0.3366265524
 H       -13.6045123015        1.2782302265       -4.2151369296
 H       -12.2142805970        2.1561197814       -4.8463423159
 H       -12.5404152201        2.1418367888       -3.0531405623
 H       -11.6328646911       -0.0106131433       -5.9978742029
 H       -12.5884449659       -1.1861701466       -5.2469065058
 H       -10.8467526703       -1.3103629340       -5.1505830886
 H        -3.4274947135        0.7758405345       -5.0698676979
 H        -3.4335529449        0.7759347907       -6.7750256715
 H        -4.5537594224       -0.2870640989       -5.9556559855
 H        -3.8231705911        2.9541125701       -5.0313745953
 H        -5.1309322497        2.5456232242       -3.9031253850
 H        -5.4028553023        3.6875838833       -5.3512537355
 Na       -9.5212067684        5.9671659932        1.8736709278
