117

 C        -5.4124953991        2.0379630081       -8.7865389751
 C        -5.8522564277        2.5016173356       -7.3510078270
 O        -6.5424115554        3.4833766379       -7.2255641497
 C        -5.4303222691        1.7167091712       -6.0738907667
 C        -6.6783446585        0.7271070803       -5.8138192779
 O        -6.4386140573       -0.4622445469       -5.9345215705
 C        -8.0851253301        1.2911212934       -5.4536239409
 C        -8.8381890126        0.1977829166       -4.5921508244
 C       -10.0498220326        0.8299238814       -3.8851952242
 O        -9.7982354301        1.7162563804       -3.0767032532
 C       -11.5528016156        0.4044110655       -4.0822894742
 C       -11.8115009174       -0.1918022252       -2.6481170317
 O       -12.2601315481        0.3954355660       -1.6936464936
 C       -11.5424196292       -1.7137786629       -2.4261412603
 C       -11.1191071745       -1.9726856651       -0.9430052660
 C        -9.6050344318       -1.7686441358       -0.7257270176
 O        -8.8174386476       -1.5212382851       -1.5941040273
 C        -9.1789391504       -1.7569227226        0.8381277563
 C       -10.0185827220       -0.7410935887        1.4366422143
 O       -11.0355823194       -0.9001623113        2.1090214756
 C        -9.6803175242        0.7099813014        1.0190484253
 C       -11.0058601491        1.5212625158        1.0038938015
 C       -10.8624169451        3.0523396689        1.3236465878
 O        -9.7836925934        3.5720483637        1.6351840203
 C       -12.1831437063        3.9589612166        1.0501380092
 C       -12.3324750927        5.1224273324        2.0649890658
 O       -11.9345084834        6.2198127544        1.7583927725
 C       -12.8278626536        4.7769274337        3.4524334812
 C       -12.6964045606        5.8872133355        4.5044122593
 C       -11.2085673756        6.0361923387        4.9275579237
 O       -10.3454303084        5.3454931426        4.3895840684
 C       -10.8733566175        7.1263570022        5.9911342094
 C       -10.8418109668        8.5490534218        5.3747972017
 O       -11.8253935873        8.9067801924        4.7682416712
 C        -9.6725696557        9.4907839261        5.4630636948
 C        -9.2761403069       10.1714197663        4.1037243937
 C        -9.0922364833        9.0517769047        3.1045662305
 O        -9.1123370734        7.8750009225        3.4523945127
 C        -8.7816159171        9.4473416103        1.4915567223
 C        -9.7496855898        8.7460768676        0.5840049389
 O        -9.6879435945        7.5288094137        0.4199037689
 C       -10.7905654765        9.6346302425       -0.1264426487
 C        -8.7022900230       10.9669847261        1.2085465983
 C        -7.3924644482        8.7055100667        1.2631834205
 C       -11.9982946394        7.2086183153        7.1186325374
 C        -9.5348301447        6.6675490400        6.6946280363
 C       -12.0097364069        4.4918677308       -0.4538665315
 C       -13.4601793577        3.0980304472        1.0144085016
 C        -9.5568918854       -3.1275623616        1.5081269455
 C        -7.6658399957       -1.4883701325        1.0567839705
 C       -12.4873389819        1.6377113688       -4.2235896913
 C       -11.7244204886       -0.5365763467       -5.2961869197
 C        -4.0908642954        0.9103476359       -6.1994061259
 C        -5.2017098613        2.7350831918       -4.8564883794
 H        -5.4787945833        2.8456843385       -9.4748349071
 H        -6.1296121192        1.2592558243       -9.0869740994
 H        -4.3740891948        1.5329159509       -8.7567040863
 H        -8.7282075304        1.6218153385       -6.3441015810
 H        -7.8780799581        2.2109859717       -4.9459144465
 H        -8.2042400718       -0.1985238480       -3.7899098215
 H        -9.0953638729       -0.6369975772       -5.2745442580
 H       -10.8467369017       -2.1588147041       -3.0918524997
 H       -12.5267394745       -2.2133739005       -2.5707876051
 H       -11.2773647711       -2.9984855644       -0.7002729964
 H       -11.7678871622       -1.3309082484       -0.3134086126
 H        -9.1187043052        0.7248474539        0.0514285846
 H        -8.9629233314        1.0970434721        1.7871289084
 H       -11.6785654279        1.0693060891        1.6834383822
 H       -11.5033310720        1.5019861934        0.0130788531
 H       -12.1548762554        3.9702041016        3.8281242848
 H       -13.8840392453        4.3996438928        3.5088772541
 H       -13.2201598787        5.6842491291        5.3933120611
 H       -13.0140097817        6.8570456046        4.0546337598
 H        -8.7498241044        8.9846682695        5.8243123017
 H        -9.8216260603       10.2526696015        6.2265310949
 H        -8.3699666991       10.6883479242        4.2591206326
 H       -10.0057823119       10.8427233490        3.7592347113
 H       -11.6256315303        8.9939348725       -0.4400209135
 H       -10.2784050988       10.1188552183       -0.9426602266
 H       -11.1342583256       10.3067749369        0.7202907673
 H        -9.2592707613       11.5721952151        1.9065658939
 H        -8.8652393906       11.2958903084        0.2310451744
 H        -7.7252486328       11.2998313284        1.4946163059
 H        -7.3411111378        7.7024131381        1.6643574264
 H        -6.6334166265        9.1815752160        1.7850875624
 H        -7.1736785749        8.8337190440        0.2130992854
 H       -12.3811564010        6.2058450220        7.4160978024
 H       -12.8255564447        7.9390312104        6.8934860170
 H       -11.5496670011        7.5233520022        8.0202509594
 H        -8.9559378156        6.1356704225        5.9633325484
 H        -9.6732262247        5.9713636438        7.4394097926
 H        -8.9371907503        7.4776094783        7.0352858310
 H       -11.9253028549        3.6562162337       -1.1884564884
 H       -11.1661320947        5.1227164924       -0.5000629251
 H       -12.8741387167        5.0300680162       -0.6887273459
 H       -14.2978529234        3.4989711924        0.4730414778
 H       -13.7372486591        2.7516162716        1.9981646594
 H       -13.1383185915        2.2470932745        0.3946098492
 H        -9.1687987140       -3.9375670756        0.9343405850
 H       -10.6369435797       -3.3281414270        1.5635040483
 H        -9.0941345865       -3.2789616570        2.4864330807
 H        -7.0509152102       -2.2764628898        0.6105315558
 H        -7.3368353078       -1.6457987104        2.1223198422
 H        -7.3589012557       -0.5809736179        0.6308223271
 H       -13.4603779432        1.2472576746       -4.3293872700
 H       -12.1683274711        2.2138254891       -5.1014199230
 H       -12.3503457709        2.1642506096       -3.2759518814
 H       -11.4387798093        0.0271300077       -6.1920617421
 H       -12.7841215598       -0.8761774197       -5.3742026119
 H       -11.0508304847       -1.4006879977       -5.2169806377
 H        -3.7848836081        0.5237693569       -5.2451812728
 H        -3.3448206874        1.5824024114       -6.7284532968
 H        -4.2169938910       -0.0306787694       -6.7619824789
 H        -5.0496226355        2.0599106240       -3.9955107345
 H        -6.0277270174        3.3422641890       -4.7177703954
 H        -4.3646754520        3.4249548300       -5.1447986593
 Na       -9.6668399571        6.0029342382        2.1146993275
