117

 C        -5.4335317754        1.6208722501       -8.6808036676
 C        -5.7343985584        2.3184591777       -7.3716854514
 O        -6.3484598170        3.3514094894       -7.3316454628
 C        -5.4437567349        1.6599383853       -6.0190486364
 C        -6.6653350381        0.8060304011       -5.5435266713
 O        -6.6238329314       -0.4046857411       -5.6603127518
 C        -7.9555022563        1.4787030864       -5.0655425414
 C        -8.8490344041        0.3990579741       -4.4627587796
 C       -10.1025944867        1.0061825894       -3.7703565245
 O       -10.0351829218        1.8948874477       -2.9237592150
 C       -11.5175022173        0.4171060818       -3.9174809710
 C       -11.9298027860       -0.1287922588       -2.4966404627
 O       -12.5125171577        0.5492933946       -1.6735326708
 C       -11.6187588540       -1.6597229260       -2.3188079198
 C       -11.2326903434       -2.1434182155       -0.8787837716
 C        -9.7964452574       -1.7514534546       -0.6264470212
 O        -9.0458797904       -1.5970355077       -1.5604011796
 C        -9.2981601056       -1.7158141449        0.8549753229
 C        -9.9945957677       -0.5753777400        1.6538067713
 O       -10.9935473187       -0.8648676361        2.2692758832
 C        -9.6840745420        0.9607031095        1.3188149866
 C       -10.9315735270        1.6140961985        0.7558138474
 C       -10.9439100525        3.1245470547        1.1416310791
 O        -9.8823321309        3.6238646427        1.4698109753
 C       -12.2262762688        4.0586480010        0.9416969870
 C       -12.3894151330        5.2019472136        2.0277015043
 O       -11.8778502838        6.3032633694        1.8071227754
 C       -12.8643562139        4.7324594745        3.3650075972
 C       -12.5200473985        5.7665333974        4.4930768839
 C       -11.0905830282        6.0145030369        4.8918071969
 O       -10.1001286738        5.4404268916        4.4122486668
 C       -10.8495260588        7.0440657003        6.0403052492
 C       -10.8369893713        8.4335657783        5.2455304048
 O       -11.8561386873        8.7762066263        4.6577712718
 C        -9.6213652435        9.4384076970        5.2347082459
 C        -9.4997052261        9.9711546048        3.8483294647
 C        -9.1376117572        8.9563413997        2.8416637931
 O        -9.2785535467        7.7554696060        3.1685188131
 C        -8.6639598415        9.3474851745        1.3859676910
 C        -9.7038195329        8.7168577549        0.3910422288
 O        -9.8105696223        7.5309920159        0.3659294517
 C       -10.7621607933        9.6454796268       -0.2371082171
 C        -8.4302640584       10.8750896040        1.1949741699
 C        -7.2759893115        8.6878139715        1.0857357464
 C       -11.9021672461        7.2084401371        7.2303643860
 C        -9.3794795181        6.7598255874        6.7026687597
 C       -11.8917641892        4.7816456892       -0.4396944212
 C       -13.5301801072        3.1678861537        0.7434716161
 C        -9.6284581280       -3.0699146511        1.4946102943
 C        -7.7384774783       -1.4701448031        0.8424586208
 C       -12.3882299603        1.6205388858       -4.2722098150
 C       -11.5643366340       -0.6843257903       -4.9850139428
 C        -4.1669638962        0.7437242243       -6.0957187656
 C        -5.1322240401        2.6935254419       -4.8490798141
 H        -6.2205377781        1.8227200960       -9.2763766160
 H        -5.3379393638        0.5414491590       -8.5280094963
 H        -4.5072925069        2.0079463738       -9.1171324067
 H        -8.3906093754        1.9984346206       -5.8970953631
 H        -7.7878393439        2.2607090854       -4.3063598505
 H        -8.3350897082       -0.2455367870       -3.7709102499
 H        -9.2162350154       -0.2678303381       -5.2451773583
 H       -10.7944320173       -2.0234566461       -2.9001695788
 H       -12.5975032040       -2.2312820265       -2.5929660779
 H       -11.3058093563       -3.2420707536       -0.9652966264
 H       -11.8830309355       -1.8188127437       -0.0479969232
 H        -8.8613540732        1.0653627701        0.6453914993
 H        -9.2901246075        1.4252019206        2.2384067197
 H       -11.8584045336        1.1110685655        1.1311855920
 H       -10.9891820332        1.6220121732       -0.2724434655
 H       -12.4947588449        3.7630716320        3.6801401799
 H       -13.9570328624        4.6601001275        3.3734707803
 H       -12.9726877925        5.4324836669        5.4314863695
 H       -12.9936209124        6.8580317565        4.2591788506
 H        -8.6648226822        9.0216610972        5.5460586324
 H        -9.8027586097       10.3192078300        5.8807211969
 H        -8.8315120547       10.8740189199        3.8609082707
 H       -10.5562344184       10.2678727074        3.5581577285
 H       -11.1441787147        9.1472854685       -1.0833751262
 H       -10.2591446222       10.5121393727       -0.4394551267
 H       -11.5713883737        9.7042211724        0.5151010129
 H        -9.3399642474       11.4999553206        0.9621711460
 H        -7.7372008587       10.9975546159        0.3824861311
 H        -8.0953647823       11.4184729505        2.0194514719
 H        -7.3304496551        7.5356658637        0.9697244626
 H        -6.5774423221        8.8469218935        1.8954672494
 H        -6.8861392417        9.2250293998        0.2268859744
 H       -11.6609656978        6.5221997713        8.0039410905
 H       -12.9686874584        7.0283116718        6.9237343456
 H       -11.8403775499        8.1411840968        7.7004672842
 H        -8.4645608513        7.0446223437        6.0838033487
 H        -9.2549756136        5.6717623398        6.8697854583
 H        -9.2572361974        7.3264957115        7.6316026269
 H       -11.7105263377        4.0316844154       -1.2306715885
 H       -11.0760958839        5.5119225313       -0.3122482823
 H       -12.8142154317        5.2496367664       -0.7819848452
 H       -14.3203041756        3.8567098815        1.0328888524
 H       -13.6156232490        2.3022695893        1.3648481175
 H       -13.7614696472        2.9383901246       -0.2965687291
 H        -9.0479420580       -3.9033419223        1.0620449772
 H       -10.6898179356       -3.3990100825        1.4244340758
 H        -9.4751061502       -3.0483947549        2.5492989038
 H        -7.2568049430       -2.3564140575        0.5489676208
 H        -7.2843831412       -1.3097634194        1.8735458489
 H        -7.4307542310       -0.6918728079        0.2399165262
 H       -13.4062728396        1.2909226508       -4.2878723237
 H       -12.0920861116        1.9558196100       -5.2530442373
 H       -12.1899423122        2.3165725075       -3.4217697972
 H       -11.5191000199       -0.2093846257       -5.9600651479
 H       -12.5449832202       -1.1932232449       -5.0354528909
 H       -10.7104827877       -1.3370573400       -4.9668445709
 H        -3.9865760123        0.3000208151       -5.1373077089
 H        -3.2792918903        1.4292440124       -6.2629277051
 H        -4.2710599257        0.0093914489       -6.8968607065
 H        -4.2584371481        2.3080728459       -4.3949745946
 H        -5.9665025929        2.7233166699       -4.1938019737
 H        -4.9935777465        3.6997662279       -5.3380943186
 Na       -9.4623879291        5.8755991112        2.1242773888
