117

 C        -5.8663891840        0.8927139530       -8.2359204618
 C        -5.8600144421        1.9990131492       -7.1399996149
 O        -6.2864444842        3.1306851343       -7.2599527246
 C        -5.3500410797        1.5571909037       -5.6899068874
 C        -6.5776206832        0.7670684250       -5.1115362705
 O        -6.7027570603       -0.3751764647       -5.4971209650
 C        -7.6668571786        1.4199875662       -4.1799428448
 C        -8.9158712500        0.5730580236       -4.3389676635
 C       -10.1851582014        1.1498413888       -3.6213528829
 O       -10.1286524217        2.1605649165       -2.9528543103
 C       -11.5972257765        0.4483542811       -3.8033633681
 C       -11.9683132004       -0.1621545581       -2.4295163275
 O       -12.3413637755        0.5548158263       -1.5340802980
 C       -11.8513396795       -1.6865710338       -2.2131464796
 C       -11.4505699141       -2.0942800731       -0.7488835412
 C       -10.0024991914       -1.5912561588       -0.5353353660
 O        -9.3531448804       -1.2015114323       -1.4914923810
 C        -9.4081266979       -1.6230927080        0.8806895845
 C       -10.1648182093       -0.4327779937        1.6654481976
 O       -11.0196884931       -0.6543139417        2.4737372330
 C        -9.8143378151        1.0362644396        1.1391371131
 C       -11.0895247901        1.8301286444        1.1221687768
 C       -10.8724820291        3.2976616914        1.0243918519
 O        -9.7058513078        3.7230125137        1.0955796447
 C       -12.1467590129        4.1260728452        0.7021158008
 C       -12.1873160255        5.0921892126        2.0065136512
 O       -11.8162132309        6.2347324447        1.8938105632
 C       -12.7046269872        4.4466394905        3.3132107751
 C       -12.3902700507        5.3006535986        4.6465674579
 C       -10.9699456291        5.9322922396        4.7756288133
 O       -10.0690087338        5.4105776594        4.1421967928
 C       -10.7038721698        7.0306076601        5.8264016230
 C       -10.9527006373        8.4417208588        5.0999842144
 O       -11.9922422343        8.6615821320        4.5322516716
 C        -9.8225344864        9.4926843615        5.0810047803
 C        -9.5497360527       10.0097593694        3.6071036486
 C        -9.0618374013        8.9200911115        2.7003306694
 O        -8.8783060638        7.8598769413        3.2287245345
 C        -8.5403798716        9.2886558163        1.2336114534
 C        -9.5930737700        8.6545415783        0.2181457795
 O        -9.6821840500        7.4139713806        0.0752284681
 C       -10.4633027568        9.5992515604       -0.5756348214
 C        -8.4517422407       10.8503276339        1.0689559003
 C        -7.1754472553        8.4731120180        1.0141969237
 C       -11.7214785442        7.0397261512        7.0138051488
 C        -9.3224344251        6.7748237829        6.2854701292
 C       -11.7811282538        4.9295232744       -0.5374975500
 C       -13.4558166822        3.4464574378        0.5550607372
 C        -9.7699584328       -3.0718298608        1.5398146580
 C        -7.8847072077       -1.3044466415        0.8200735488
 C       -12.6495245470        1.5840862195       -4.0831916208
 C       -11.7328343359       -0.5697589828       -4.8969850463
 C        -3.9896761312        0.6869190927       -5.9154443572
 C        -4.9366598844        2.7700184853       -4.7344620451
 H        -6.8204408553        1.0313944480       -8.7948240753
 H        -5.9425255543       -0.0426677111       -7.7655484002
 H        -5.0489282329        0.9743887537       -8.8794099325
 H        -7.8703422684        2.5070849794       -4.3838884145
 H        -7.2947563727        1.2832748598       -3.2131557070
 H        -8.7103137894       -0.4312979296       -4.0042212912
 H        -9.1855446156        0.4933476509       -5.3963466305
 H       -11.2129552513       -2.2440438768       -2.9709753834
 H       -12.9073792715       -2.0422367911       -2.3000522312
 H       -11.4522872426       -3.1703487152       -0.5918205214
 H       -12.2475874676       -1.7149383589       -0.0609709569
 H        -9.4785206549        1.0135925964        0.0681199740
 H        -9.0653772868        1.6026815344        1.6706728529
 H       -11.6279546081        1.6969879892        1.9584991666
 H       -11.6931748726        1.5471104773        0.2550558493
 H       -12.2949482104        3.4235837594        3.4632187744
 H       -13.7908211049        4.2940192209        3.2466786794
 H       -12.4863571330        4.5900062857        5.5775723617
 H       -13.1386490592        6.0376438451        4.8512664599
 H        -8.8748967078        9.0294649657        5.4341641880
 H       -10.1357797200       10.3490247080        5.6606665077
 H        -8.8676657786       10.9065566594        3.6240583339
 H       -10.5631828219       10.3457605054        3.2574186220
 H       -11.4284906518        9.1926183212       -0.3909397222
 H       -10.1257862684        9.4685705190       -1.6114740714
 H       -10.3459523800       10.5611022076       -0.2264868558
 H        -9.3867086622       11.2884208639        1.0208717468
 H        -7.9284070812       11.1098627795        0.1600014382
 H        -7.8039945187       11.2605471798        1.8924952380
 H        -7.3612508614        7.4502356732        1.0098119457
 H        -6.3741885936        8.9102516518        1.6633260775
 H        -6.8628476079        8.6266505361       -0.0650593615
 H       -12.2954777902        6.0946223015        7.0680250615
 H       -12.4605984138        7.7729530372        6.9391491951
 H       -11.1542408965        7.2309618962        7.9231200311
 H        -8.6766474176        7.3221116957        5.5795993795
 H        -9.0704480951        5.7002299780        6.2702869935
 H        -9.0257205017        7.1032903407        7.3467513097
 H       -11.8097965153        4.3309079096       -1.4546151521
 H       -10.7894288335        5.4190776025       -0.4694485605
 H       -12.5370266703        5.7390210481       -0.6751583887
 H       -14.2666724881        4.1337941658        0.7568927644
 H       -13.5715555134        2.5989238472        1.2568023528
 H       -13.5513870553        2.9383820622       -0.4196450421
 H        -9.4303595233       -3.8960672788        0.9381975515
 H       -10.7973918036       -3.2723041189        1.8035756456
 H        -9.2693472724       -3.1765199830        2.5585305431
 H        -7.4015359152       -2.0456560455        0.1929237294
 H        -7.4708515345       -1.1665803256        1.7300156101
 H        -7.6358977610       -0.3725580393        0.3306540181
 H       -13.5736705029        1.0510944470       -4.2683380308
 H       -12.3390720363        2.1023383535       -5.0154214886
 H       -12.7038772493        2.2128735333       -3.2240320229
 H       -11.8993362807       -0.1031168123       -5.8673544163
 H       -12.5580083594       -1.2668271358       -4.8139469413
 H       -10.8800013834       -1.2389051509       -5.0427041148
 H        -3.2235169210        1.1354540465       -5.2833224858
 H        -3.6705950568        0.7772508716       -6.9318140088
 H        -4.2401533514       -0.3582992045       -5.7442412733
 H        -4.0539554666        3.2656624258       -5.2086508917
 H        -4.5953422676        2.2313258650       -3.8533316693
 H        -5.6977567764        3.5063721746       -4.6055621977
 Na       -9.5364533486        6.0166968652        1.8706565661
