117

 C        -5.9813977052        0.8222363531       -7.9713580781
 C        -5.9265092018        1.9443854988       -6.9891776285
 O        -6.2851298386        3.0620494015       -7.2441991884
 C        -5.3506949258        1.5345320339       -5.6010825193
 C        -6.5348849564        0.6937913651       -5.0733505102
 O        -6.7361491629       -0.4350543924       -5.4482404406
 C        -7.6422343485        1.3009611068       -4.1499785113
 C        -9.0117518404        0.5944359393       -4.3652190308
 C       -10.1503416806        1.2649542903       -3.6301421680
 O        -9.9968374801        2.2388248433       -2.9121045327
 C       -11.5761466470        0.5207593636       -3.7993685093
 C       -11.9484902629       -0.1678878485       -2.3831199548
 O       -12.3444249467        0.5569034191       -1.4537995343
 C       -12.0118588926       -1.6595416228       -2.2337919176
 C       -11.4148281036       -2.1514642589       -0.8709817131
 C        -9.9816289272       -1.6017893262       -0.6317619925
 O        -9.2837304586       -1.0136677348       -1.4328115253
 C        -9.4392554151       -1.6338615396        0.8684531195
 C       -10.1685567069       -0.4837265412        1.5619127277
 O       -10.9415816914       -0.6159968682        2.4746094179
 C        -9.8255960096        0.8708362694        1.1609915250
 C       -11.0554858694        1.7818361241        1.2264425420
 C       -10.8099339133        3.3003527096        1.0045664332
 O        -9.7173817342        3.8475131180        1.0374821781
 C       -12.1760752138        4.2247115586        0.7420382904
 C       -12.2943246725        5.1047250435        1.9982516687
 O       -11.9047394626        6.2816759209        2.0069264059
 C       -12.7658505281        4.4931274977        3.2561182489
 C       -12.4176250496        5.2253657485        4.5136339549
 C       -11.0073870757        5.8600449819        4.6770010140
 O       -10.0328193763        5.5188809859        4.0223544920
 C       -10.6708395118        6.9993941566        5.7247286326
 C       -10.8751785069        8.3549683673        4.9670265322
 O       -12.0202633507        8.5652958894        4.5358569092
 C        -9.8638429014        9.5036989315        4.9614759983
 C        -9.6136671093       10.0730160819        3.5305793128
 C        -8.9508525716        8.9188755091        2.7022817390
 O        -8.8441918433        7.7930244883        3.1245084817
 C        -8.5096815087        9.3002749479        1.2454901276
 C        -9.5902672158        8.6845730416        0.2140501637
 O        -9.6559293065        7.4500045561        0.0814898037
 C       -10.4727159794        9.5197834504       -0.7167111516
 C        -8.3177766832       10.7625941562        1.1827431160
 C        -7.1498611726        8.6125442126        0.9702263257
 C       -11.6760853610        7.0241398271        7.0005599709
 C        -9.1893370348        6.8186369117        6.3117090539
 C       -11.7178863190        5.0315020894       -0.5577579962
 C       -13.5525390829        3.4624676833        0.5381912010
 C        -9.7482604651       -2.9484752774        1.5975033164
 C        -7.9528856748       -1.4245184080        0.8809350644
 C       -12.6675915545        1.6010947773       -4.1474130345
 C       -11.6897951045       -0.6006543276       -4.8398385273
 C        -4.1063917624        0.6549467394       -5.8542138426
 C        -5.0494736105        2.8040825149       -4.7109794281
 H        -6.7255103550        1.0511522190       -8.7117584198
 H        -6.2613887394       -0.1904946143       -7.4872888480
 H        -5.0190549606        0.8041479195       -8.4374905485
 H        -7.7976683206        2.3312903311       -4.4782274941
 H        -7.3639595640        1.2241486300       -3.0881224934
 H        -8.9732654893       -0.4078045981       -3.8822779175
 H        -9.2784516554        0.4429903506       -5.3911420052
 H       -11.4914981768       -2.2195437889       -3.0875830002
 H       -13.0577353933       -1.9132167152       -2.2515108799
 H       -11.4970452983       -3.2354176458       -0.6835574259
 H       -12.0205856642       -1.7320465377       -0.0780840506
 H        -9.3703529982        0.9606002322        0.1651957719
 H        -9.0936462115        1.2863621378        1.8888740755
 H       -11.4147003911        1.8226311881        2.2419693673
 H       -11.8168858191        1.4598706469        0.5617960119
 H       -12.2892738029        3.4708767042        3.3972710124
 H       -13.8659456453        4.2659901368        3.2543520661
 H       -12.7384959416        4.5808756224        5.3623509669
 H       -13.0148101902        6.0681085333        4.6294253149
 H        -8.8820721865        9.1637537883        5.2914712150
 H       -10.2900600043       10.3245316957        5.5885930739
 H        -8.9082074253       10.8806757446        3.6456585744
 H       -10.5099485305       10.4917377017        3.1050706687
 H       -11.4199275512        9.1960395830       -0.3101612263
 H       -10.3157896215        9.1866742284       -1.7419132035
 H       -10.2444574232       10.5353476178       -0.5289937775
 H        -9.2287502221       11.3096096028        1.2674108896
 H        -7.8459939643       11.0397151287        0.2984852910
 H        -7.6362211200       10.9434167162        1.8793286184
 H        -7.2534430910        7.5591141004        0.7351752756
 H        -6.4736672016        8.9515913791        1.7603990444
 H        -6.7662923782        8.9864946919        0.0726645360
 H       -11.8988540883        6.0478236857        7.3319606221
 H       -12.6194040996        7.4387982709        6.7516531335
 H       -11.2451857627        7.6731573771        7.7768706252
 H        -8.4576993986        7.3015870340        5.6899381290
 H        -8.9295752233        5.7356864268        6.4185242267
 H        -9.0658175968        7.1950984368        7.3034028611
 H       -11.5439809164        4.3897768166       -1.3300822237
 H       -10.9143133413        5.7124472482       -0.5126663279
 H       -12.6123995014        5.5812836496       -0.8481998007
 H       -14.4238463615        4.0277599046        0.8096931874
 H       -13.5973964345        2.5250750955        1.0551049793
 H       -13.5819866617        3.1609948926       -0.4592253925
 H        -9.3008382700       -3.7951164507        1.0344893426
 H       -10.8083861458       -3.1615304229        1.6247034174
 H        -9.4292663771       -3.0396120352        2.6387198957
 H        -7.4539414391       -2.1438318741        0.3500224203
 H        -7.5917464999       -1.2747167187        1.8703646457
 H        -7.6845083841       -0.5142612982        0.3720753099
 H       -13.6207294297        1.0228241945       -4.2020205050
 H       -12.4436581870        2.0177472074       -5.1171192259
 H       -12.6789931054        2.3418819756       -3.3618909379
 H       -11.7061438801       -0.3149531475       -5.8964094226
 H       -12.5366742943       -1.2401177962       -4.7174329384
 H       -10.8992944964       -1.3545928824       -4.7780773553
 H        -3.2723892937        1.1387938651       -5.2404533183
 H        -3.8581447495        0.7641586292       -6.8896262576
 H        -4.3384590612       -0.4196748398       -5.6574798541
 H        -4.7637784950        3.6516983874       -5.2825969453
 H        -4.2563900155        2.4652429234       -3.9517005194
 H        -5.9563184335        3.0712088359       -4.2348702394
 Na       -9.4899908774        5.9814946905        1.8667380735
