117

 C        -6.4865824348        0.4379017887       -7.5661466198
 C        -6.1108365083        1.5846894317       -6.5230958543
 O        -6.5080057699        2.7359644059       -6.6908126925
 C        -5.4225076667        1.1830973805       -5.2054631515
 C        -6.5700103171        0.5117516666       -4.3731403576
 O        -6.4422335485       -0.6070724616       -3.9137284103
 C        -7.8644235680        1.2854673185       -4.1991948803
 C        -9.1867166460        0.5129003912       -4.2739131365
 C       -10.3129766520        1.2555639758       -3.5998703130
 O       -10.1101424913        2.2802048749       -3.0245659349
 C       -11.8662756282        0.6152741913       -3.7040792439
 C       -12.3277146876       -0.2138950277       -2.3785278790
 O       -13.0917664891        0.3126824006       -1.5544129798
 C       -12.0117484205       -1.7424112879       -2.3458798609
 C       -11.3495629403       -2.1431359587       -0.9861159138
 C       -10.1164747736       -1.3390902384       -0.5085197143
 O        -9.5649267501       -0.4879116402       -1.1698897942
 C        -9.4886887807       -1.5253692190        0.9701642293
 C        -9.9582610267       -0.4688444665        1.8951240066
 O       -10.7919397309       -0.6423032746        2.7703114703
 C        -9.5794134043        1.0096349732        1.4996733143
 C       -10.8575029451        1.6999950614        0.8744195851
 C       -10.7487544620        3.2166712636        0.9696851413
 O        -9.6848972231        3.7189139831        1.2440240531
 C       -12.1220508884        4.1627890503        0.6474000323
 C       -12.2673760549        5.1423030452        1.8492740373
 O       -11.8585293169        6.2974618588        1.6990050624
 C       -12.9717233008        4.6789419741        3.1454069790
 C       -12.5204497132        5.6507870265        4.2528528347
 C       -11.0279320229        5.7808707914        4.3451509613
 O       -10.2513505689        5.0205016895        3.7767684549
 C       -10.4807408316        6.8457363415        5.3523400487
 C       -10.8594275133        8.3218495798        4.6360064203
 O       -11.8995276591        8.5257821475        4.1218990258
 C        -9.7813160405        9.4318007831        4.7717457879
 C        -9.4330106980       10.1236574693        3.4681123911
 C        -8.7778140715        9.1742855288        2.4430878528
 O        -8.6289751408        8.0302137009        2.8244102602
 C        -8.2421288242        9.5866768913        1.0231325553
 C        -9.3189777467        8.9135278853       -0.0248755899
 O        -9.5423563739        7.7332650882       -0.0192819348
 C        -9.8591968453        9.8393883706       -1.2120369543
 C        -8.1374816557       11.0891723513        0.8981992686
 C        -6.7867584804        8.9797456397        0.7556514191
 C       -11.3091599083        6.7590683035        6.6546160096
 C        -9.0285494032        6.5909785450        5.6931105314
 C       -11.9275288957        4.9937018354       -0.6405368319
 C       -13.3171338396        3.2255105830        0.5827985875
 C        -9.8750035905       -2.8971207713        1.6396224681
 C        -7.9361612094       -1.5622599886        0.8669853950
 C       -12.7434631170        1.8498655832       -3.6891128581
 C       -12.1254195378       -0.1393067887       -4.9779246796
 C        -4.1753582033        0.2827361135       -5.3363236247
 C        -5.1683040477        2.5389054178       -4.3717010130
 H        -7.4755172860        0.6777275726       -7.8583603235
 H        -6.4233133980       -0.5254883894       -7.1791083544
 H        -5.8858845519        0.5297819744       -8.4803140154
 H        -7.8487661021        2.0749858527       -4.9131966849
 H        -7.8643570365        1.8537521879       -3.2451446200
 H        -9.0793865521       -0.4340861749       -3.6646272003
 H        -9.4574957830        0.2768017193       -5.2804512775
 H       -11.3857120792       -2.0972228527       -3.2054432610
 H       -12.9200678015       -2.3966480417       -2.4652222100
 H       -11.2613301900       -3.2230369663       -0.7587182672
 H       -12.0658256630       -1.7683928015       -0.2288683673
 H        -8.7951959512        0.9230871397        0.7792228211
 H        -9.2586326327        1.6091376897        2.4057800671
 H       -11.6533285606        1.3661806572        1.5213695000
 H       -10.9693685607        1.3413477625       -0.0907199940
 H       -12.7960818709        3.6643466605        3.4533457027
 H       -14.0349026215        4.7442004770        2.9871233693
 H       -13.0291435232        5.4531333459        5.1525494983
 H       -12.8946047293        6.6887966033        3.9265048032
 H        -8.8708360682        9.1064357468        5.2194589190
 H       -10.1647943335       10.1583153321        5.5101682272
 H        -8.7703254007       11.0154517202        3.6267477228
 H       -10.3983554165       10.6206988259        3.1207100697
 H        -9.7307022005       10.8200554110       -0.8216993462
 H       -10.8784218560        9.6196746256       -1.3126831429
 H        -9.2721254418        9.5332192915       -2.1173542838
 H        -9.1241211863       11.5655159279        0.9941950273
 H        -7.6914598820       11.2878958194       -0.1131545709
 H        -7.6118132971       11.5434644781        1.8319141074
 H        -6.8062368278        7.8705414494        0.4847916286
 H        -6.1481050211        9.0183057068        1.6268545080
 H        -6.3205131952        9.5987912614       -0.0167826196
 H       -10.9378238823        5.9394054141        7.2307438830
 H       -12.4091962663        6.6916182316        6.3726051582
 H       -11.1707914456        7.5524972588        7.3887728117
 H        -8.4394616451        6.2604715150        4.8073101202
 H        -9.0600110375        5.7216518323        6.3444235409
 H        -8.5998644666        7.4474337965        6.1835602973
 H       -11.4214802212        4.4115854255       -1.5320022185
 H       -11.4358495512        6.0062963405       -0.6122113392
 H       -12.9154758601        5.2183561656       -1.0415637628
 H       -14.1643024412        3.6478745136       -0.0270562070
 H       -13.6422649695        3.0244861336        1.6028340677
 H       -13.0231044101        2.2866636273        0.0619178611
 H        -9.4623739635       -3.7202817662        0.9983884130
 H       -10.9645445147       -3.0436743016        1.7726646688
 H        -9.3945774285       -2.9069919475        2.5896259601
 H        -7.5889597457       -2.5576741471        0.5103828842
 H        -7.3991370536       -1.4693912097        1.8945584296
 H        -7.6639112715       -0.7708845526        0.1839828816
 H       -13.7771357601        1.4959023896       -3.6127116354
 H       -12.6571835981        2.3950757031       -4.5850829771
 H       -12.4651931215        2.4342232960       -2.7959702476
 H       -11.5448689236        0.1396498901       -5.8590281921
 H       -13.1291109487       -0.1050667257       -5.3992671662
 H       -11.8115823880       -1.1801987736       -4.8705824363
 H        -3.6952962284        0.3233068764       -6.2761316455
 H        -4.4174511625       -0.7272392925       -4.9690642891
 H        -3.4731777867        0.6903110603       -4.6356891154
 H        -6.0368485328        3.0404270662       -3.9974616472
 H        -4.7994914523        3.3320586713       -5.0129255784
 H        -4.4502768857        2.4066890981       -3.4946922068
 Na       -9.3422182813        5.9993923356        1.6498929420
