117

 C        -6.4058584480        0.5441768439       -7.5724933054
 C        -6.1349908876        1.6776390878       -6.6425606977
 O        -6.5190672978        2.8086326764       -6.8542085617
 C        -5.3882354977        1.2499585727       -5.2451058526
 C        -6.5405547704        0.4423885948       -4.4625018391
 O        -6.2754212592       -0.6887093178       -4.1086347393
 C        -7.8497335568        1.2581111774       -4.2134067169
 C        -9.1388891011        0.4223055446       -4.2325868972
 C       -10.3684746895        1.1909547959       -3.5681960089
 O       -10.2246928924        2.2554325473       -3.0162265744
 C       -11.8612705351        0.6518595535       -3.7168404507
 C       -12.2360669905       -0.1708387090       -2.4563859879
 O       -12.8583063567        0.3509977509       -1.5400134860
 C       -11.9494737394       -1.6534622155       -2.2491254612
 C       -11.4221958872       -2.1320084842       -0.8996047746
 C       -10.1116394403       -1.4250192158       -0.4681717563
 O        -9.5846538780       -0.6499225586       -1.2535902630
 C        -9.4446867031       -1.5937866986        0.9212843455
 C       -10.0580408110       -0.3779178886        1.8420745674
 O       -10.8474614696       -0.5633565131        2.7761890759
 C        -9.6406425313        1.1010163158        1.4500278583
 C       -10.8982353063        1.7125646623        0.9092888228
 C       -10.8059367454        3.1900048263        0.8626050949
 O        -9.8045116031        3.7900597703        1.2031499561
 C       -12.0869067312        4.0525480150        0.6454169064
 C       -12.1880391211        5.1233469117        1.8493098148
 O       -11.7078032302        6.2360671304        1.8182177632
 C       -12.9635395842        4.7182066780        3.0522662103
 C       -12.5170737982        5.6419630806        4.2446345468
 C       -11.0224511048        5.7099888007        4.4240414756
 O       -10.2035001123        4.9857430677        3.9028517187
 C       -10.5106605689        6.8815561350        5.4489443547
 C       -10.8250870412        8.2388921297        4.7053731558
 O       -11.9275599117        8.4700929236        4.1824036946
 C        -9.7866929321        9.4307953133        4.7019993438
 C        -9.5667783352       10.0951929189        3.3589026839
 C        -8.8138843136        9.0817084065        2.4966245955
 O        -8.6353396822        7.9679780415        2.8514895125
 C        -8.3596084418        9.5686469884        1.0456834665
 C        -9.2348607247        8.9670095167       -0.0197261584
 O        -9.4443989014        7.7316544901       -0.0248271280
 C        -9.8744439289        9.8428572372       -1.0555397685
 C        -8.1777691111       11.0835927785        0.9777304793
 C        -6.9669279671        8.9139235234        0.7217264342
 C       -11.3526872984        6.8911272304        6.7240628756
 C        -9.0402517765        6.6552497157        5.6836408286
 C       -11.8514147919        4.9713842151       -0.5511223623
 C       -13.3701864274        3.2174436971        0.5891507857
 C        -9.8653946093       -2.9589016352        1.6363865314
 C        -7.9006053368       -1.4736303106        0.7953998744
 C       -12.8448043550        1.9037439396       -3.7118626684
 C       -12.1017274501       -0.1098023569       -5.0050241805
 C        -4.1740584197        0.3819585971       -5.3263067002
 C        -5.0557763164        2.5284795529       -4.4382662662
 H        -7.2651885758        0.7076668316       -8.1646353127
 H        -6.5307694283       -0.4053476858       -6.8963404482
 H        -5.5515480371        0.4149049673       -8.2067228700
 H        -7.8768063725        2.1951552722       -4.8513003680
 H        -7.6842248955        1.6348464353       -3.2127056207
 H        -8.9023023516       -0.5471561481       -3.7283031522
 H        -9.4435579637        0.2597196043       -5.2809700435
 H       -11.1800809329       -2.0276589040       -2.9818368517
 H       -12.7429039132       -2.2907421167       -2.4865865626
 H       -11.1348995409       -3.1865081199       -0.9969532084
 H       -12.2156937148       -2.1489286357       -0.1388241524
 H        -8.8469790380        1.0322225575        0.6908242637
 H        -9.3333403223        1.6044616719        2.3632844287
 H       -11.7019971485        1.4027984390        1.6432779481
 H       -11.0717190984        1.2512770929       -0.1308710717
 H       -12.7361894101        3.7075027224        3.3596699384
 H       -13.9972490313        4.6859667153        2.8251670743
 H       -12.9827539769        5.1742767798        5.2448181794
 H       -12.9269437227        6.6529000504        4.2148841652
 H        -8.8178807835        9.1878070924        5.0922524082
 H       -10.1716564313       10.1258528312        5.4183693130
 H        -9.0297672635       11.0430604383        3.4184686641
 H       -10.5320840448       10.4118143819        2.9580350659
 H        -9.7200057708       10.8468871819       -0.6606476490
 H       -10.9560332477        9.5709141439       -1.0178266872
 H        -9.4419809204        9.5245940960       -2.0027717650
 H        -9.0961536498       11.6441798187        1.4621094481
 H        -8.0657549535       11.3410294188       -0.1199117873
 H        -7.3964253950       11.4127191695        1.6380768555
 H        -7.1626651257        7.8231611297        0.6481619174
 H        -6.3380996097        8.9690471505        1.6033775788
 H        -6.4899811584        9.3333650368       -0.0910128853
 H       -11.2278955539        5.9442395240        7.2185913176
 H       -12.3586664239        7.2356252880        6.5891617811
 H       -10.8552111093        7.5205596886        7.5188412599
 H        -8.5958664556        6.7211978315        4.7444287696
 H        -8.8799418292        5.6233797580        5.9785910275
 H        -8.6596056226        7.3376795268        6.3469725225
 H       -11.6931158351        4.3943314724       -1.4453304423
 H       -11.0114575806        5.6630536895       -0.5243520305
 H       -12.7525036981        5.5936784982       -0.7723361696
 H       -14.1482296836        3.9597143599        0.5092048900
 H       -13.4837750722        2.7946732180        1.5749670754
 H       -13.4829474688        2.5497695988       -0.2073423583
 H        -9.9271615522       -3.8363461404        0.9936274409
 H       -10.8274232258       -2.7898516479        2.0799423581
 H        -9.1046582286       -3.1327205012        2.4160792722
 H        -7.4680056082       -2.3552035000        0.2943451616
 H        -7.3228029660       -1.4921882710        1.7951069581
 H        -7.7595748953       -0.5434336683        0.1780020386
 H       -13.8732447282        1.4907333379       -3.8533459034
 H       -12.6230105158        2.4626211722       -4.6226504249
 H       -12.7369551582        2.5146563905       -2.8401865587
 H       -11.5577629448        0.2697496870       -5.8864427884
 H       -13.1287903800       -0.1259550082       -5.3515029626
 H       -11.7460005954       -1.1539269954       -5.0165743927
 H        -3.9427942707        0.0442074161       -6.3886558423
 H        -4.3274016665       -0.4103290517       -4.6191009472
 H        -3.2897047682        0.9323493613       -4.9898066368
 H        -5.8121650821        2.9478538561       -3.8091832957
 H        -4.9277939625        3.4265815682       -5.1571428636
 H        -4.1717572874        2.3996830034       -3.8845914354
 Na       -9.4379182129        6.0128000830        1.7566069753
