117

 C        -6.1532203649        0.7586805703       -7.9672839834
 C        -5.9821562027        1.9305800589       -6.9517325334
 O        -6.3098440742        3.0744810756       -7.1930448965
 C        -5.4136226068        1.4842220782       -5.4486305646
 C        -6.5878027875        0.5802942899       -4.9656657205
 O        -6.6647116666       -0.5802120262       -5.3792703989
 C        -7.6722315530        1.2794846167       -4.1256553556
 C        -9.0127040718        0.5707598590       -4.3570095402
 C       -10.1574611478        1.2050745415       -3.5903079707
 O       -10.0232526430        2.2217298431       -2.9636504550
 C       -11.6223666362        0.5144693552       -3.7207220785
 C       -12.0254683411       -0.1071022981       -2.3220675943
 O       -12.2970770667        0.6205605810       -1.3702124157
 C       -12.0484221533       -1.6349656991       -2.2199843904
 C       -11.3243858589       -2.0832860742       -0.9361444425
 C        -9.9688520881       -1.5675503593       -0.6546460230
 O        -9.3482467939       -0.9176886376       -1.4854343558
 C        -9.4319583847       -1.7316424145        0.8188191385
 C       -10.1517032674       -0.4520305530        1.6298912283
 O       -10.9582083352       -0.7358843460        2.5184175711
 C        -9.7190779037        1.0205080057        1.1209007322
 C       -11.0482003055        1.8467939441        1.2733568190
 C       -10.9365168652        3.3495253503        0.9896688044
 O        -9.8503755657        3.8516177824        1.0292996208
 C       -12.1081050223        4.2514925220        0.6963042326
 C       -12.2516566488        5.1810654637        1.9971096357
 O       -11.9727974886        6.3672716435        2.0175692489
 C       -12.7395330107        4.4847989248        3.3259003377
 C       -12.4184571953        5.3702791449        4.5492964842
 C       -10.9516028941        5.8461931548        4.6509013615
 O       -10.0872074737        5.4233752644        3.9093132809
 C       -10.6385154256        6.9440471869        5.7124700929
 C       -10.9612709869        8.3307208915        4.9779843734
 O       -12.0322170462        8.4653809788        4.4542143943
 C        -9.8946578532        9.4786091289        4.9869510780
 C        -9.6264410782        9.9360901753        3.5301862546
 C        -8.9547974412        8.9378479932        2.6425898136
 O        -8.8012626592        7.7793178294        3.0619232620
 C        -8.4594096077        9.3829672098        1.1814219366
 C        -9.5218788455        8.6905538142        0.1994533487
 O        -9.5823799359        7.5061403938        0.1277579855
 C       -10.4542489897        9.5402821224       -0.7774997359
 C        -8.2265468996       10.8939315372        1.0735377416
 C        -7.1209590652        8.6320022345        0.9346638219
 C       -11.6149657515        6.9448072945        6.9112537680
 C        -9.1886457426        6.8178300936        6.2627111696
 C       -11.8505138517        5.1068765251       -0.5392793572
 C       -13.3851468641        3.4799240426        0.4935124034
 C        -9.8120537878       -2.9779669687        1.6384620458
 C        -7.9088983173       -1.5525141681        0.9269917490
 C       -12.6534837196        1.6225095556       -4.1129730867
 C       -11.5230168114       -0.5034327243       -4.8830028240
 C        -4.1569723864        0.6087602515       -5.6218403586
 C        -5.1309346198        2.8160759529       -4.7124661532
 H        -6.8477368255        1.0015838739       -8.7630890503
 H        -6.5379591482       -0.1430179941       -7.4577136299
 H        -5.1035085445        0.5621135952       -8.4108555955
 H        -7.7536200568        2.2379043330       -4.5860230510
 H        -7.3848226947        1.3224371068       -3.0168369591
 H        -8.8861516250       -0.4830238205       -4.0529448171
 H        -9.2776353028        0.5881948644       -5.4226998286
 H       -11.4921088545       -2.0905315380       -2.9768514799
 H       -13.0417166737       -2.0879559185       -2.2730987685
 H       -11.2514389270       -3.1836970670       -0.9976019785
 H       -11.9105827157       -1.9688362210       -0.0355904712
 H        -9.4699823870        1.0024137535        0.0783271407
 H        -8.8654663973        1.4624465536        1.6889215628
 H       -11.4915138959        1.7085963563        2.3641615581
 H       -11.7187909026        1.4509161659        0.5153375917
 H       -12.3522068933        3.4774720892        3.5289639727
 H       -13.8492287548        4.3464900885        3.2677747217
 H       -12.7480486032        4.9178074049        5.3974040430
 H       -13.0318034127        6.3245650130        4.5070721005
 H        -8.9866961605        9.3129010033        5.5297225607
 H       -10.4461900101       10.3681906605        5.3481142460
 H        -9.0577605494       10.8373945911        3.5543950173
 H       -10.5677817358       10.2230015559        3.1340144922
 H       -11.4600930970        9.4540495822       -0.3555092183
 H       -10.3512274861        9.0227751213       -1.6953424754
 H        -9.9951518294       10.5694380495       -0.8250503187
 H        -9.0732040450       11.4710418486        1.4043693019
 H        -7.9910210802       11.1319018009        0.0776965199
 H        -7.2945412265       11.0762470949        1.5856839252
 H        -7.2306828833        7.5610366703        0.6723816780
 H        -6.5434131225        8.8802940725        1.7499025836
 H        -6.6560524601        9.0336429837        0.0797536744
 H       -11.4892484665        6.1523216423        7.6023082603
 H       -12.6350988298        6.8019952890        6.4668501945
 H       -11.6528907243        7.9146186040        7.3378644795
 H        -8.4806702263        6.8795161885        5.4540951854
 H        -9.0826008217        5.8689662252        6.7260069108
 H        -8.9487072417        7.5134620869        6.9963209192
 H       -11.4563533570        4.5081722231       -1.3731317313
 H       -11.1861065118        5.9150757762       -0.4400074290
 H       -12.7633483992        5.4740300910       -0.8401616399
 H       -14.1920476220        4.1878899811        0.5355453420
 H       -13.5505193672        2.7040505801        1.1806718698
 H       -13.3603626527        3.0545693683       -0.4864012459
 H        -9.3059771033       -3.9011965127        1.3074112513
 H       -10.9005211768       -3.1821838070        1.5426572040
 H        -9.5810996287       -2.8913787697        2.6643417202
 H        -7.2801181245       -2.3192262270        0.5009367518
 H        -7.6117307126       -1.3049575028        2.0076851774
 H        -7.6376384542       -0.6839641709        0.3808817505
 H       -13.6597424129        1.2094271842       -4.0852261837
 H       -12.3951515451        1.9415448514       -5.1017965913
 H       -12.5006951445        2.4601349208       -3.3897391386
 H       -11.1515674428       -0.0820037947       -5.8067975665
 H       -12.4358000065       -1.0462361274       -5.1340290603
 H       -10.9033963896       -1.3687424142       -4.7108325039
 H        -3.4737116099        0.8210706581       -4.7974771615
 H        -3.7059146656        0.8893164224       -6.6281925393
 H        -4.5183786063       -0.4413244693       -5.6776700939
 H        -5.2485203190        3.6373678290       -5.3909740282
 H        -4.1634047156        2.7959053448       -4.2434640867
 H        -5.9624465753        2.9638046602       -3.9599777055
 Na       -9.4198917468        5.9257079072        1.8081163389
