117

 C        -6.4418866483        0.3904105158       -7.4134249314
 C        -6.2414059993        1.5363843143       -6.4586907910
 O        -6.4849059171        2.6943028922       -6.7067706241
 C        -5.5998196633        1.1606076007       -5.0301653297
 C        -6.7295876914        0.4818589335       -4.1351857111
 O        -6.6740671011       -0.6199361999       -3.6190635355
 C        -8.0440586743        1.3199689693       -4.0710265501
 C        -9.2743740594        0.4099627794       -4.1142988964
 C       -10.4727149656        1.1699705929       -3.5006437178
 O       -10.2384483510        2.1999300691       -2.8732604553
 C       -11.8896188464        0.6728531900       -3.6185856096
 C       -12.2879930082       -0.1896376802       -2.3465706117
 O       -13.1571232473        0.2082370196       -1.6089708052
 C       -11.6400909630       -1.6497131349       -2.3687043490
 C       -11.3710913077       -2.0362107213       -0.8986668343
 C       -10.0826781431       -1.3184977704       -0.4370076281
 O        -9.7125978323       -0.3481037226       -1.0671036885
 C        -9.4713953146       -1.5894523597        0.9385016731
 C        -9.9724981898       -0.4601770282        1.8548711696
 O       -10.6637619073       -0.7406298178        2.8409776167
 C        -9.5907664817        1.0244502501        1.4889026738
 C       -10.8273451611        1.7477974201        0.9299976802
 C       -10.7455696834        3.3085169287        0.9097461593
 O        -9.7599844320        3.9816166407        1.1386445714
 C       -12.0797514989        4.0682726285        0.5857520681
 C       -12.2866198170        5.1524036616        1.7160989512
 O       -11.9486244063        6.2944588975        1.5109894807
 C       -12.9590322192        4.6340487094        3.0328138519
 C       -12.6043970804        5.5837228288        4.2087995872
 C       -11.0812280136        5.8861558322        4.3085926833
 O       -10.3453626530        5.2697353479        3.5586917488
 C       -10.5260170109        6.8950365132        5.3819692817
 C       -10.6452481705        8.3181967894        4.7088517281
 O       -11.6978785332        8.5335556909        4.0868073042
 C        -9.5987967141        9.4691002900        4.7995613548
 C        -9.2168305670       10.0929112262        3.4383829630
 C        -8.7650791344        9.1048299265        2.4072422197
 O        -8.6263825150        7.9238547039        2.6843738407
 C        -8.2694032939        9.6426379646        1.0086718056
 C        -9.2541085279        8.9870506495       -0.0527455891
 O        -9.5412986603        7.8151073318        0.1438175309
 C        -9.6799818452        9.7656656388       -1.3398617378
 C        -8.2052353804       11.1237988354        0.8745838863
 C        -6.8558333052        8.9626685340        0.8475482624
 C       -11.2757016825        6.9738029221        6.6811344225
 C        -8.9729848354        6.5841698682        5.5778250281
 C       -11.7039516212        4.6727627204       -0.7873241253
 C       -13.2844450954        3.1074968088        0.4451357408
 C        -9.9882917084       -2.9540686114        1.4316931355
 C        -7.9387408297       -1.6294634496        0.8814340495
 C       -12.7542868099        1.9472584272       -3.7053613992
 C       -12.0368621375       -0.1658009197       -4.9326115362
 C        -4.4096672674        0.1938811914       -5.1945468457
 C        -5.0149773761        2.4055984194       -4.3801428033
 H        -7.4774439610        0.0612962091       -7.4675673633
 H        -5.7142102977       -0.4208496688       -7.0244796320
 H        -6.1261803428        0.6451890720       -8.3891008211
 H        -8.0735731106        2.1255350829       -4.8542166872
 H        -8.1043128661        1.9454615840       -3.1922855091
 H        -9.1016458760       -0.5047115431       -3.6184075946
 H        -9.5089004010        0.2287705790       -5.1871721888
 H       -10.7528105230       -1.8873681542       -2.9580245634
 H       -12.4077189215       -2.3025856578       -2.7392471699
 H       -11.4206705693       -3.1229155834       -0.7902172756
 H       -12.1592951858       -1.6112583758       -0.2385026228
 H        -8.6534518728        1.0358614196        0.8850109652
 H        -9.3896030503        1.5333708505        2.4042228127
 H       -11.6264817098        1.4665561577        1.6195270888
 H       -11.0658175994        1.3607581615       -0.1137803522
 H       -12.6356433970        3.5879438764        3.2949351242
 H       -14.0792111418        4.5909978077        2.9595168490
 H       -12.9427122098        5.0508728664        5.1732623776
 H       -13.2387677520        6.3880322134        4.1441518868
 H        -8.6751674963        9.2960719774        5.4218397709
 H       -10.1183884737       10.2514400430        5.3694359441
 H        -8.4478389490       10.8524642600        3.5699111670
 H       -10.0484300814       10.6611602231        3.0740647727
 H        -9.9279224143       10.7852495107       -1.0744129434
 H       -10.5421852998        9.2319099628       -1.7900594178
 H        -8.7807444049        9.6510293520       -1.8700560240
 H        -9.1536632623       11.6476199172        0.8583700809
 H        -7.7393481667       11.3088571328       -0.0541910689
 H        -7.6206899535       11.4960478059        1.6058517133
 H        -6.7995498226        7.9164426624        1.1037451917
 H        -6.0872770924        9.4723661267        1.4913017208
 H        -6.5288759790        9.2016671977       -0.1492226353
 H       -11.3950906118        5.9838227509        7.1558222143
 H       -12.2117457583        7.4202876701        6.5185650929
 H       -10.6726467638        7.4808970284        7.4378104814
 H        -8.5730291339        6.6095629636        4.5526443832
 H        -8.8479644271        5.5021466231        5.9016214572
 H        -8.4109499142        7.3063396381        6.2152631224
 H       -11.2124512974        3.9578190929       -1.3500634159
 H       -11.0593153767        5.5203274031       -0.7222668077
 H       -12.5229157219        5.0166825339       -1.4504089721
 H       -14.2221412070        3.6618644296        0.4262309838
 H       -13.3207664768        2.3080236978        1.2395074457
 H       -13.1381565382        2.6432161704       -0.5295359618
 H        -9.4069699174       -3.7015594025        0.9336206200
 H       -11.0182929780       -3.0925514640        1.1453557420
 H       -10.0512748782       -3.0324254560        2.5560299265
 H        -7.6058764494       -2.5419947782        0.4724696734
 H        -7.5664593843       -1.4707187818        1.8605014823
 H        -7.6168787013       -0.8053400429        0.2751279241
 H       -13.8078448669        1.6986904375       -3.6265803918
 H       -12.5629595912        2.4744187844       -4.6646908111
 H       -12.4826690531        2.5280508286       -2.8536994911
 H       -12.1485354259        0.4130864831       -5.8401851672
 H       -13.0008978430       -0.6394247454       -4.9890132615
 H       -11.2587569191       -0.9070999903       -5.0959121822
 H        -3.5176243333        0.7416441668       -5.6370059726
 H        -4.6665989138       -0.5958010687       -5.8568627352
 H        -4.0083168242       -0.2574904970       -4.2927375369
 H        -5.5759954110        3.3442568536       -4.5900498151
 H        -3.9395914698        2.6487743466       -4.5946064513
 H        -5.0803542627        2.2918218599       -3.3493664117
 Na       -9.3301547225        6.1154776948        1.5083087511
