117

 C        -6.4893881955        0.3804457258       -7.4320834919
 C        -6.1356954232        1.4994976461       -6.4392362556
 O        -6.5077550510        2.6222913498       -6.7194011346
 C        -5.6153364276        1.1340648035       -5.0072365980
 C        -6.7683009306        0.5137772566       -4.1744842888
 O        -6.5994469342       -0.5551086044       -3.5914785635
 C        -8.0160166666        1.3140481286       -4.0151332267
 C        -9.2815907688        0.4638494824       -3.9632897877
 C       -10.4723248910        1.2554734473       -3.3959885683
 O       -10.3096470671        2.2013929189       -2.6818463679
 C       -11.9772811215        0.7130748934       -3.6972411314
 C       -12.3555636906       -0.2009873135       -2.5217371645
 O       -13.0254491829        0.1629846079       -1.5523766636
 C       -11.6657291393       -1.5282812506       -2.4090298317
 C       -11.3849763499       -2.0284822430       -0.9848349358
 C       -10.1927159371       -1.2346735197       -0.4188189622
 O        -9.6898480505       -0.3137525659       -1.0527750155
 C        -9.5052985862       -1.6405182543        0.9301371005
 C        -9.9185156187       -0.4272375082        1.9513866411
 O       -10.6565445723       -0.6785841898        2.8904222920
 C        -9.5537378924        1.0132421210        1.5300943013
 C       -10.7912751128        1.7429724966        1.0507243939
 C       -10.7613645114        3.2091145928        0.9376609057
 O        -9.7324332429        3.8389829358        1.0554336311
 C       -12.0500554062        3.9994669809        0.4449945865
 C       -12.2982331777        5.1057248406        1.5911954289
 O       -11.9382743270        6.2472888563        1.4297113491
 C       -12.9119420883        4.6782823413        2.9414458876
 C       -12.5686235782        5.5946110482        4.2211462216
 C       -11.0748754986        5.8958387235        4.3384015068
 O       -10.2999648658        5.4154267458        3.5383887256
 C       -10.4925332201        6.9636802877        5.3262454747
 C       -10.6373060238        8.3839254277        4.6060921101
 O       -11.6544745994        8.6147148110        4.0245721246
 C        -9.4985217158        9.4110262989        4.8183516301
 C        -9.2407951110       10.1255731383        3.5067234165
 C        -8.7258883510        9.1067928474        2.4896425454
 O        -8.6550001509        7.9526846696        2.7198096544
 C        -8.2548503963        9.6448935805        1.0198147408
 C        -9.1803597239        8.9430590831       -0.0773523375
 O        -9.6228977167        7.7930910068       -0.0402376497
 C        -9.5041754108        9.7515822122       -1.2844776167
 C        -8.2437030127       11.1438613306        0.9430590309
 C        -6.8739555275        8.9784504395        0.7198643560
 C       -11.1993120568        7.0637920377        6.6781567589
 C        -9.0044932119        6.5063519271        5.5669771438
 C       -11.6433197852        4.6648217279       -0.8786964061
 C       -13.3424652534        3.0967394392        0.3902747323
 C        -9.9672972036       -3.0172632597        1.5105451876
 C        -7.8940025536       -1.6114565842        0.8355239723
 C       -12.9141864133        1.8676771320       -3.7486362775
 C       -12.1473154501       -0.1685579364       -4.9629575631
 C        -4.4952308257       -0.0089119822       -5.0261207457
 C        -5.0533532133        2.3797347587       -4.2515643560
 H        -7.5294525655        0.0982906343       -7.2148159861
 H        -5.7876755520       -0.4500994233       -7.3592622940
 H        -6.4684126171        0.7861176613       -8.4894804084
 H        -8.0511304264        2.2454195003       -4.6260963006
 H        -7.9138373856        1.7628517204       -3.0233013747
 H        -9.0941228409       -0.4447262620       -3.3500259118
 H        -9.5733282968        0.1626613333       -4.9638956551
 H       -10.6468654630       -1.4652685455       -2.8336444666
 H       -12.1397126188       -2.2777581143       -2.9487863222
 H       -11.1823859296       -3.1106296094       -1.0089289201
 H       -12.2130466769       -1.8665282949       -0.2971723286
 H        -8.7798020031        0.9916053788        0.7707516433
 H        -9.1205261261        1.5596323960        2.3851047603
 H       -11.7461952078        1.3511498067        1.5868191874
 H       -10.8452885644        1.4277153873       -0.0632273047
 H       -12.6537101279        3.6337726994        3.1792306395
 H       -13.9970172375        4.7009610870        2.8307485017
 H       -13.0102637874        5.1070436288        5.1553348632
 H       -13.1616917682        6.5175668030        4.1069137116
 H        -8.5635699992        8.9862475801        5.1424819994
 H        -9.7386183256       10.1308623906        5.6026150013
 H        -8.5148134396       10.8809600533        3.6606018317
 H       -10.1136692393       10.6419183084        3.1589909519
 H       -10.0652608485       10.6124894598       -0.9054261906
 H       -10.1904880191        9.1062967389       -1.8206979242
 H        -8.5239133402        9.9940803040       -1.7711683457
 H        -9.1961879644       11.6006044094        1.1837259108
 H        -8.0360717788       11.4681953230       -0.0698066631
 H        -7.3867476222       11.5517230683        1.5079651343
 H        -6.8074525162        7.9906912750        1.2383813991
 H        -6.1279365200        9.5652231209        1.1873557052
 H        -6.6127433639        8.9450675752       -0.2775156573
 H       -11.6143653061        6.1533961614        7.0074663915
 H       -12.0535081318        7.7310058946        6.5117311618
 H       -10.5510122567        7.4124370751        7.4859514592
 H        -8.4146211334        6.7943123371        4.7085634226
 H        -8.9446705397        5.4118903780        5.6551778558
 H        -8.5973440648        6.9765437124        6.4036241069
 H       -11.4601887165        3.8585743395       -1.5843289542
 H       -10.7704191845        5.2222726069       -0.8162818845
 H       -12.3037330208        5.2953234445       -1.3504471194
 H       -14.1701370712        3.7608690206        0.5801427202
 H       -13.3033968323        2.4062053008        1.2040987437
 H       -13.4852459598        2.5498510226       -0.4986983339
 H        -9.7099867254       -3.8077090537        0.7948793623
 H       -11.0171941413       -3.0323495432        1.7584512803
 H        -9.5228632733       -3.1159015188        2.4744576143
 H        -7.5903301313       -2.4104812748        0.2111031330
 H        -7.4530869586       -1.6224373669        1.8989970664
 H        -7.5780519317       -0.7057625979        0.3851407385
 H       -13.9762128390        1.5216230639       -3.8184836972
 H       -12.6676904990        2.4962188657       -4.5941638785
 H       -12.8057197420        2.3786943197       -2.7969118428
 H       -12.3164629825        0.3947737951       -5.8759931282
 H       -13.0545553922       -0.7368964737       -4.9753494786
 H       -11.2931120633       -0.8374531525       -5.1252867627
 H        -3.4576149830        0.3843699284       -5.2540554150
 H        -4.6943961501       -0.8423124352       -5.7174455662
 H        -4.3664072460       -0.4163580535       -4.0028211588
 H        -5.5624099706        3.2485306616       -4.6227520088
 H        -3.9554706725        2.5638212317       -4.4107087817
 H        -5.2335380815        2.4484139957       -3.1902729265
 Na       -9.4406031518        6.1506566240        1.5013685323
