117

 C       -10.2670439049       -6.1719404791        3.3053466603
 C       -10.1425373398       -5.2739435277        1.9960218158
 O       -10.3163639322       -5.7874276014        0.8857460770
 C        -9.8725723170       -3.8730622093        2.1833031418
 C       -10.7167595244       -3.0136677394        1.2359690568
 O       -10.2383913074       -2.0540978545        0.7283608933
 C       -12.1525922285       -3.4911076959        1.0873961263
 C       -12.6866394246       -3.3473730481       -0.4168926568
 C       -12.3629690650       -2.0193766494       -0.9872657694
 O       -11.8982922616       -2.0063432268       -2.1232959773
 C       -12.9667392905       -0.6502541008       -0.5097174872
 C       -11.7762826929        0.2385469925       -0.1017811663
 O       -11.5967297398        0.7350131607        0.9643448130
 C       -10.6145729580        0.3101341689       -1.1962146085
 C        -9.2763632111        0.8762274330       -0.7069430981
 C        -9.0242653304        2.2808251452       -1.2217708908
 O        -9.2730459534        3.2135316993       -0.4538058136
 C        -8.6848216237        2.6087073071       -2.7025197074
 C        -9.9535254264        3.4593702068       -3.4226708715
 O       -10.9607341218        3.5144355736       -2.7620562294
 C        -9.7612061390        4.1798553003       -4.7473735711
 C       -10.4123486061        5.6483944975       -4.5724253864
 C       -10.0866437694        6.3244300245       -3.2588535857
 O        -9.1893373780        5.8496194429       -2.6346301095
 C       -10.8611712760        7.7203521183       -2.8566228887
 C       -10.1293156791        8.5162339786       -1.7044250666
 O        -9.4759091838        7.9498246653       -0.8295797889
 C       -10.3037146246       10.0426798067       -1.6423068671
 C        -9.6596226270       10.6680857045       -0.4252163694
 C       -10.5385130385       10.4085246801        0.8692842951
 O       -11.6541717139        9.9605156966        0.8566272604
 C        -9.8856263607       10.7580800633        2.2174445515
 C        -8.7936583882        9.5377684054        2.4303478935
 O        -7.7273867328        9.6089006661        1.8122785558
 C        -9.2408931187        8.2147513033        3.2321354942
 C        -7.9437864014        7.3726955926        3.4582990416
 C        -7.8495686124        6.2947204081        2.4595116448
 O        -8.8146811991        6.0305983049        1.7938471790
 C        -6.5834633074        5.5020275487        2.3423051199
 C        -5.9235946702        5.7545730723        0.9300511121
 O        -6.6513080145        5.8252818310       -0.0403579117
 C        -4.3905990208        5.8044313151        0.6948960294
 C        -5.5407645463        5.8411852102        3.4346905161
 C        -6.8431621367        3.8984823383        2.4213695058
 C        -9.1394545211       12.0954306078        2.2075062791
 C       -10.9528952053       10.8302042350        3.2989936454
 C       -10.9954457714        8.4354664168       -4.2057236165
 C       -12.2508463411        7.3242482756       -2.3660515425
 C        -7.3603353674        3.3653445489       -2.7258123006
 C        -8.5985907803        1.3350624403       -3.6202015958
 C       -13.7375912506       -0.1088725506       -1.7211508942
 C       -13.9971701791       -0.8818416926        0.6542687276
 C       -10.2255672225       -3.3753267625        3.6167375057
 C        -8.3066898922       -3.5935758799        1.8986805279
 H        -9.5532128380       -5.8546497441        3.9751244364
 H       -10.1752068371       -7.2474797437        3.1083537308
 H       -11.2518699105       -6.0804809156        3.7178732973
 H       -12.6807032280       -2.8231044528        1.7164065309
 H       -12.4378795596       -4.4541916815        1.4692540237
 H       -13.7681094500       -3.3924473372       -0.3786590400
 H       -12.3210385815       -4.1501353850       -1.1014253926
 H       -10.9385626365        0.8112503803       -2.1528419253
 H       -10.4583646807       -0.7640385244       -1.4088802160
 H        -8.4107579106        0.2881122275       -0.9779377959
 H        -9.2608385693        0.7790752487        0.3624720516
 H       -10.2213351741        3.5598727680       -5.5757599131
 H        -8.7045477255        4.3420668655       -5.0129243176
 H       -11.5517656440        5.5897465535       -4.5034500496
 H       -10.1088937737        6.3981086964       -5.3601236969
 H       -11.4166862774       10.2182559187       -1.7205060040
 H       -10.0279430299       10.6248767083       -2.5975297060
 H        -9.4417143312       11.7307742088       -0.6002911060
 H        -8.6964680522       10.2708664463       -0.3235680662
 H        -9.8066286785        7.5291045923        2.6468061440
 H        -9.7840202071        8.4257379720        4.1505199617
 H        -7.9433087840        7.0318909811        4.4967296660
 H        -7.0209166765        8.0186804580        3.4658959564
 H        -3.9076576421        6.5585872049        1.2226275008
 H        -4.1954674236        6.1045305024       -0.3976462856
 H        -3.9089808644        4.8425253611        0.8835556562
 H        -5.9542829531        5.8261419601        4.4175394122
 H        -5.1308467532        6.8599676072        3.3841268768
 H        -4.7976851514        5.0114823121        3.4629997775
 H        -5.8639983536        3.4114852369        2.5222572424
 H        -7.3073591489        3.5022126745        1.5947826948
 H        -7.3187962996        3.7698182422        3.3691413739
 H        -8.9129647788       12.4838296149        3.2142603516
 H        -9.8285411287       12.7993650920        1.6989501325
 H        -8.1606238409       12.0928935495        1.6881193437
 H       -10.4293682451       10.9939259158        4.2390476779
 H       -11.4258833741        9.7990884570        3.3345935537
 H       -11.6499625879       11.5538449930        2.9459207720
 H       -11.5101210674        7.8617312968       -4.9213791043
 H       -10.1023820182        8.7499120796       -4.6481298846
 H       -11.5443412068        9.3847119752       -4.1689270949
 H       -12.6182800067        6.5534195065       -2.9983207864
 H       -12.9401180694        8.0944086979       -2.3494570733
 H       -12.1842214807        6.9323854858       -1.3838221848
 H        -7.2681399026        4.0080926631       -3.5919774501
 H        -6.4512485473        2.7751951858       -2.7307998931
 H        -7.3689647746        4.0902520307       -1.9569466528
 H        -9.4054855965        0.6139539747       -3.6341495028
 H        -7.7265098577        0.7984482878       -3.4378810981
 H        -8.5181946085        1.7660444087       -4.6575974465
 H       -14.6215782088       -0.8157593283       -1.8686314942
 H       -13.0712698159       -0.0951247978       -2.6167526166
 H       -14.1626863750        0.8903778976       -1.5644971408
 H       -14.6172002924       -1.7743886516        0.5746337000
 H       -14.6556593367       -0.0739744991        0.6160672314
 H       -13.4875933509       -1.0290200724        1.5601973836
 H       -11.1854243166       -3.7723580901        3.9118509250
 H       -10.3179903941       -2.3036327511        3.6878014080
 H        -9.4984284235       -3.8315977434        4.3228664681
 H        -8.2127772143       -2.6182336886        1.4869941542
 H        -7.9406317501       -4.3336238739        1.2454446978
 H        -7.7508337722       -3.5805141664        2.8386659932
 Na       -9.0345084094        5.7225080738       -0.3802758111
