117

 C        -5.9336803160        8.6120965364       -4.6545813708
 C        -6.9920600741        9.6764332035       -4.9497642251
 O        -6.8498692226       10.7888765072       -4.4953276139
 C        -8.3674850947        9.4231869491       -5.6683413520
 C        -9.3763672791        9.0227078718       -4.4421609950
 O        -9.5015972395        7.8462848852       -4.1468485080
 C        -9.8952654886       10.0331237508       -3.4637536705
 C       -10.4935428873        9.4780683336       -2.1142823530
 C       -11.6608159114        8.4858845788       -2.3713797514
 O       -12.4066198951        8.6640785071       -3.2981033416
 C       -11.7659296378        7.2317837226       -1.4368574892
 C       -10.4249793725        6.4732665093       -1.5752101111
 O        -9.5302700743        6.9785270258       -0.9633128764
 C       -10.3402378399        5.2231422972       -2.4219926031
 C        -8.9183273785        4.6801738998       -2.3391104725
 C        -8.5529122896        3.9997475856       -0.9634238995
 O        -9.3892908015        3.2757194432       -0.4337122536
 C        -7.0483509279        4.0610213743       -0.5636785388
 C        -6.6485502071        2.6342892238       -0.0510018546
 O        -7.4016466796        2.0561817012        0.7262391006
 C        -5.2431727627        1.9409002217       -0.3168613788
 C        -4.9780695676        0.6841553764        0.5731535266
 C        -6.0417387488       -0.4382665144        0.2844102353
 O        -6.3965116257       -0.6156464699       -0.8700109032
 C        -6.7018094282       -1.2470247385        1.3986716327
 C        -8.1449351789       -0.7651549247        1.5461068874
 O        -8.4514048358        0.2525539732        2.0836839382
 C        -9.2731851151       -1.7638005662        1.0815594039
 C       -10.6611113201       -1.5456269325        1.6799001946
 C       -11.4970807924       -0.5806623743        0.8270352575
 O       -11.0378958054        0.5527765566        0.7078903550
 C       -13.0001146511       -0.9520695714        0.4851158014
 C       -13.8940117452       -0.4580530526        1.7818771859
 O       -14.1210561689       -1.2680499575        2.6388449154
 C       -14.3952315539        0.9723886522        2.0750495976
 C       -13.8100229272        1.6537400230        3.3722958161
 C       -12.4825365276        2.3297749090        3.0932289405
 O       -12.0667933575        2.5521064398        1.9759111976
 C       -11.7459016367        2.9033930907        4.3236190529
 C       -10.9124530037        4.1664489778        3.8563469971
 O        -9.8576402761        4.1253985001        3.2783516446
 C       -11.4247586456        5.5394578850        4.2885130246
 C       -12.6712342542        3.3249676953        5.4437091475
 C       -10.8260663847        1.7853981676        4.9167282848
 C       -13.3545006657       -0.0897832024       -0.8014496017
 C       -13.1835820528       -2.4948085215        0.3891783128
 C        -6.5500469901       -2.7139512864        1.0359760013
 C        -6.0786487565       -1.0552026027        2.8614752420
 C        -6.1142690564        4.6494205671       -1.7252635771
 C        -6.9718828393        5.1981164741        0.5989852548
 C       -11.8571495672        7.7385269220        0.0689054009
 C       -12.9968745427        6.5410909381       -1.9417442148
 C        -8.8984023093       10.6118115140       -6.4546240889
 C        -8.4358214178        8.1265541118       -6.5730972516
 H        -5.2927221666        8.7821564522       -3.7804028085
 H        -5.2879783507        8.5593407515       -5.5835340077
 H        -6.4824288182        7.6433609094       -4.5702360890
 H       -10.5669521283       10.5900101849       -4.0770684942
 H        -9.0386224777       10.6433368544       -3.1026433849
 H       -10.8311382207       10.3816636318       -1.5794959187
 H        -9.7383183927        8.9470145914       -1.5481122044
 H       -10.6447590411        5.4651328023       -3.5248424422
 H       -10.9974999014        4.4591474409       -1.9106740273
 H        -8.1758344562        5.3977863089       -2.5182405675
 H        -8.8056331222        3.8825398257       -3.0785003501
 H        -4.4675933475        2.7057306249       -0.0602909462
 H        -5.0270471573        1.6271520431       -1.3435546692
 H        -5.0417661794        0.9892899390        1.5852691834
 H        -4.0497350361        0.3233045681        0.2862423941
 H        -9.0459397093       -2.7331215736        1.3751910515
 H        -9.2914939959       -1.7662264174        0.0413905364
 H       -10.5144682248       -1.1337404818        2.6734370980
 H       -11.2219351184       -2.4206816147        1.7552847921
 H       -15.4626336228        0.7819039568        2.2886489975
 H       -14.3848909359        1.6262842327        1.2380205947
 H       -13.8128512764        0.8790009714        4.1532063586
 H       -14.5430909430        2.3360114723        3.6041932004
 H       -10.5067800576        6.0098519768        4.0513007186
 H       -11.6850410721        5.5992194458        5.3543650255
 H       -12.3045521965        5.9095149934        3.7225300574
 H       -13.0255501847        2.5247915651        6.1321843711
 H       -13.5608118781        3.8164488424        5.1166475117
 H       -12.1498658763        4.0068152095        6.0491173983
 H       -10.1751702348        2.2599718847        5.6463870605
 H       -10.2690009941        1.3281965347        4.1217209569
 H       -11.4394196898        1.0846249377        5.4729545415
 H       -14.4598147864       -0.0096733950       -0.8829655262
 H       -12.9577491616       -0.5081244965       -1.7340527723
 H       -12.9991764096        0.9452076635       -0.6183388611
 H       -14.1699957512       -2.8672994507       -0.0465731162
 H       -13.1671959522       -2.8472587285        1.4282567522
 H       -12.2903357381       -2.7792127047       -0.2219197385
 H        -5.4966361746       -3.0207593731        0.9695676228
 H        -6.9382989804       -2.8682548731        0.0259537310
 H        -7.0228590915       -3.3349672758        1.7994269856
 H        -6.3014384052       -0.0747202782        3.2411874672
 H        -4.9367622881       -1.1314512320        2.8820203765
 H        -6.4906330030       -1.7621707682        3.5563915835
 H        -5.0474372013        4.3986431974       -1.5782493436
 H        -6.1302086441        5.7187731339       -1.6579935037
 H        -6.4912884782        4.2495340070       -2.6993126689
 H        -7.6067089863        6.0457452377        0.2639702433
 H        -5.9260069594        5.4951992720        0.6890471904
 H        -7.4382584571        4.8657115379        1.5460510102
 H       -10.9531460914        8.1957887751        0.5049042174
 H       -12.3063893249        6.9403688753        0.7002787754
 H       -12.5493156832        8.6055623380        0.0768592297
 H       -13.8671050580        7.1982048490       -1.7788411834
 H       -13.2022109598        5.5726608393       -1.6371468216
 H       -12.8977956709        6.5947708945       -3.0232776821
 H        -8.6391268791       11.5454455488       -5.9437835921
 H        -9.9970137849       10.5137233775       -6.5279154118
 H        -8.5063507079       10.6338150341       -7.4796360028
 H        -9.5158703303        7.9757402248       -6.8232829922
 H        -8.0194165695        7.2092297689       -6.0813837312
 H        -7.9167730433        8.4426373584       -7.5303630365
 Na       -9.6127236024        2.3148506415        1.7572633780
