117

 C        -5.8729899473        8.5345957554       -4.9338998976
 C        -6.9530197005        9.6244344381       -5.2914789658
 O        -6.7865819735       10.7905232266       -5.0227076115
 C        -8.3662938243        9.0389746138       -5.8383661858
 C        -9.1317412061        8.7822873922       -4.5449647366
 O        -9.1609091632        7.6497783986       -4.1180643028
 C        -9.8453960446       10.0390502459       -3.8682438505
 C       -10.4369722348        9.5859181445       -2.6275294259
 C       -11.5214704231        8.5454642989       -2.7934774700
 O       -12.3096974367        8.4893353412       -3.7331146633
 C       -11.6681704357        7.5532469190       -1.5853827131
 C       -10.4129129400        6.6744421095       -1.6113856750
 O        -9.4638154983        6.8328413772       -0.8122186918
 C       -10.2787004736        5.4821866026       -2.5772461883
 C        -8.9202208352        4.7304317398       -2.3797825908
 C        -8.6660940506        4.4082946481       -0.9103741055
 O        -9.5491991701        4.0042973527       -0.1976305984
 C        -7.1553143337        4.2346642621       -0.4100170994
 C        -6.9117701425        2.6217096520       -0.0504656514
 O        -7.7166414363        1.8927802866        0.4596140668
 C        -5.4599404122        2.0337627207       -0.1367421780
 C        -5.3155651112        0.7986213583        0.7931029952
 C        -6.2253094108       -0.4054789057        0.3377811521
 O        -6.5238364246       -0.6331721950       -0.8003697961
 C        -6.8025873307       -1.3693396241        1.5116373067
 C        -8.2615052544       -0.9692603515        1.8314778229
 O        -8.3897892574        0.0456421806        2.5241983351
 C        -9.3883794431       -1.8443114832        1.3535273717
 C       -10.7949820721       -1.3734386979        1.8300982341
 C       -11.4425455589       -0.3755671324        0.7479534290
 O       -10.7465272338        0.4208727105        0.1602862852
 C       -12.9977769619       -0.5429924325        0.4845755901
 C       -13.6780249695       -0.4001246818        1.9734130249
 O       -13.7161129695       -1.3354886686        2.7615444615
 C       -14.3692766397        0.9545204099        2.3493279635
 C       -13.7983701045        1.5563904176        3.7093130890
 C       -12.4824580205        2.1812796234        3.5024787948
 O       -11.9398011856        2.1296077150        2.4015086037
 C       -11.6398997320        2.8633670660        4.6152609677
 C       -10.8661451963        4.1666468615        3.9067856509
 O        -9.8144766024        4.0001590538        3.3062667824
 C       -11.4089333762        5.5327199794        4.2929724425
 C       -12.6233851770        3.2847635687        5.7171258247
 C       -10.6495388655        1.8180229719        5.3208273890
 C       -13.5584341692        0.4035792236       -0.5787653836
 C       -13.3740291878       -2.0770504674        0.0709801986
 C        -6.8050513052       -2.8441050216        0.9839131983
 C        -5.9865444098       -1.2297862472        2.7998834848
 C        -6.0895640752        4.5472890543       -1.4976001182
 C        -6.8960891318        5.0454333179        0.9255682646
 C       -11.8202265589        8.1934462480       -0.1654662299
 C       -12.9735507163        6.6533588418       -1.9199835283
 C        -8.9511852073       10.2113182150       -6.6791157680
 C        -8.2538925186        7.6937733383       -6.6188320216
 H        -4.8272261542        8.9201536581       -5.1575336727
 H        -6.1161798103        7.6591130552       -5.5237841365
 H        -5.9800456352        8.0897593607       -3.9424479957
 H       -10.6319437753       10.3490344276       -4.5412755278
 H        -9.0898937458       10.8162610031       -3.6776593090
 H       -10.8916943168       10.3500355155       -1.9925945070
 H        -9.7192027962        9.1039054688       -1.9685376929
 H       -10.4140536434        5.9284744488       -3.6049209537
 H       -11.1979974265        4.7823977571       -2.3578170100
 H        -8.0820468832        5.2110817457       -2.8272747642
 H        -9.0921698562        3.7537938923       -2.7976963519
 H        -4.7234598341        2.7122600758        0.1909960953
 H        -5.1526923107        1.6792317255       -1.1815908827
 H        -5.5631674126        1.0914416550        1.7598975383
 H        -4.3051624853        0.4671165003        0.7393177871
 H        -9.2762573203       -2.7598001966        1.8278495429
 H        -9.2985314501       -2.0105435766        0.3343529088
 H       -10.7157545326       -0.8792999525        2.7635495785
 H       -11.5007585886       -2.1435567697        2.1478002527
 H       -15.3939338812        0.7375343908        2.3686882934
 H       -14.1382369195        1.7549745828        1.6255838317
 H       -13.7376092179        0.8567729115        4.5199525890
 H       -14.4852980090        2.3134704094        4.0060122009
 H       -11.1612492852        6.2491656002        3.4866147558
 H       -10.9731091641        5.8310717438        5.2722517613
 H       -12.4751940096        5.4322635199        4.3334725180
 H       -12.8783606759        2.4863178849        6.3370071578
 H       -13.4338015906        3.7532712347        5.2173608604
 H       -12.2378971708        4.1252196726        6.2951740059
 H       -10.0629239553        2.3803755166        6.0371895993
 H        -9.9906219567        1.3050491313        4.6033643296
 H       -11.3215923363        1.1746058906        5.8632280866
 H       -14.6512588611        0.4018961365       -0.3716137286
 H       -13.4577606289        0.1184279698       -1.6446695677
 H       -13.1812058037        1.4312091574       -0.4680555026
 H       -14.4437335845       -1.9581381355       -0.2018304900
 H       -13.3138829252       -2.8403610989        0.9166067671
 H       -12.7355287766       -2.3713882579       -0.7979650321
 H        -5.7726335564       -3.2402087923        0.7713544197
 H        -7.3229428749       -2.8692952931        0.0134713585
 H        -7.2197718446       -3.5111953549        1.7412300124
 H        -6.0466527687       -0.2652266367        3.3550779132
 H        -4.9523425311       -1.2160562153        2.5030975873
 H        -6.0938946572       -2.1127443436        3.4150065148
 H        -5.0527022367        4.3581864877       -1.0972165716
 H        -6.2589474114        5.6188057152       -1.8185416669
 H        -6.1818584811        3.9334460848       -2.4169268751
 H        -6.8331700205        6.0915072676        0.5856655804
 H        -5.9900817382        4.6932148943        1.4593256392
 H        -7.6905336278        4.8525090166        1.6330605160
 H       -10.8776255474        8.6617048289        0.1805221950
 H       -11.8947734446        7.3453455127        0.6005358019
 H       -12.7087294626        8.7952932040        0.0961663903
 H       -13.8588443925        7.1662464505       -1.6138700065
 H       -12.8770378864        5.7524496032       -1.2637979709
 H       -13.0701950741        6.3527116210       -2.9381842252
 H        -8.9482545495       11.1846636965       -6.2175412151
 H        -9.9796942145        9.9317474279       -6.8246448853
 H        -8.3700415523       10.2782516242       -7.5975233837
 H        -9.1435458690        7.6787176619       -7.2918488864
 H        -8.3301548955        6.9267691821       -5.7955969634
 H        -7.3071847918        7.5890845270       -7.1702906952
 Na       -9.9189719705        2.3019562221        1.3765344978
