117

 C        -5.9943409264        8.5792175669       -4.7573163543
 C        -7.0132545731        9.6772977383       -5.0275433478
 O        -6.7594247887       10.8064868689       -4.5908943359
 C        -8.4412972883        9.3500607006       -5.6767138316
 C        -9.2997765832        8.9675441803       -4.4025490958
 O        -9.4839744220        7.7786659847       -4.2132021710
 C        -9.8625427633       10.1846743408       -3.5205413120
 C       -10.4585830031        9.5934564340       -2.2451678003
 C       -11.6315929921        8.5556428699       -2.5117903514
 O       -12.4044116143        8.6306123447       -3.4323141233
 C       -11.8392498119        7.4063411335       -1.4887397322
 C       -10.4626769522        6.5221893562       -1.5134360999
 O        -9.4106051204        6.8271346020       -0.9413475275
 C       -10.4352807618        5.2242116375       -2.3539488724
 C        -8.9376002499        4.6664667467       -2.3791952836
 C        -8.5644531916        4.0438902670       -1.0720432652
 O        -9.4043164554        3.5067280974       -0.3940468607
 C        -6.9889631780        4.1630219000       -0.5199452636
 C        -6.5877423035        2.7442134108        0.0213528552
 O        -7.4506855249        2.0611970695        0.5440384661
 C        -5.3033886386        1.9271660473       -0.4172976702
 C        -5.0531050331        0.8138284252        0.6687713301
 C        -6.0253017877       -0.3858737217        0.3377814517
 O        -6.3206780252       -0.6008762951       -0.8225790081
 C        -6.7284374188       -1.3196351579        1.4780872723
 C        -8.2247130196       -0.9142806139        1.6036659347
 O        -8.5156192126        0.1881678578        2.0519468881
 C        -9.2765823955       -1.8969285204        1.1310195552
 C       -10.6508003165       -1.5586553704        1.7882139422
 C       -11.5041312746       -0.4965060692        0.9367337041
 O       -11.0921037747        0.5990123752        0.6217658448
 C       -12.9143374229       -0.8609171873        0.5521097231
 C       -13.7589243824       -0.4505176157        1.8234857579
 O       -14.0785512609       -1.3552540717        2.5576175501
 C       -14.2842555580        1.0070200051        2.0452839439
 C       -13.8238615941        1.5859398858        3.4894750474
 C       -12.5497924636        2.3314302388        3.2094146137
 O       -12.0954186087        2.4115258082        2.0687781319
 C       -11.6802779257        2.9708741743        4.4812229833
 C       -10.8347823000        4.2793603910        3.9347444553
 O        -9.8661441170        4.0432073122        3.2299029483
 C       -11.4239925709        5.6476776743        4.2262521537
 C       -12.7113755046        3.2873775177        5.5648330694
 C       -10.7685333588        1.7753736991        4.9885148894
 C       -13.4797864944       -0.0495681864       -0.7425653234
 C       -13.2947888849       -2.3121650042        0.2873783532
 C        -6.6221438793       -2.8059810060        0.9736561350
 C        -6.0949245374       -1.0873795191        2.8765671129
 C        -6.0082209379        4.5912678869       -1.6218709163
 C        -7.0119009298        5.1639646634        0.6744583218
 C       -11.8734245738        7.7631565934        0.0313464812
 C       -13.0090493549        6.5039097071       -1.9112894709
 C        -8.9121861091       10.5399369893       -6.4788094926
 C        -8.3677287021        7.9708136833       -6.5627461827
 H        -5.3822431448        8.8451307106       -3.8450676965
 H        -5.2879504073        8.6147112643       -5.5970459790
 H        -6.3975566278        7.5715043104       -4.6801546436
 H       -10.5820927222       10.5544218235       -4.1876413028
 H        -9.1032519451       10.9037284059       -3.2439338362
 H       -10.8409440757       10.3820297022       -1.6297595323
 H        -9.7090503248        9.0594815112       -1.6983940277
 H       -10.6594492939        5.6021267593       -3.3834560052
 H       -11.1977042518        4.4937530298       -1.9130954030
 H        -8.2064112853        5.4366447976       -2.5565957546
 H        -8.7952627423        3.8594770384       -3.1434399889
 H        -4.4333572284        2.4658592874       -0.6097386998
 H        -5.5434167381        1.3699308691       -1.3759663535
 H        -5.1696288291        1.2138888958        1.6237547351
 H        -4.0771178506        0.4072298695        0.4417314127
 H        -9.0302941110       -2.8479075461        1.5619118546
 H        -9.3018054481       -2.0034546876        0.0646792218
 H       -10.3995493598       -1.1422065104        2.7514831174
 H       -11.3452012462       -2.3544669312        1.9992644049
 H       -15.3197518064        0.9492994776        1.9693657312
 H       -13.9245194710        1.6393791163        1.2433964276
 H       -13.7320946398        0.7522611745        4.1722099554
 H       -14.6089428850        2.1983791523        3.8410326253
 H       -10.8264976672        6.3777413190        3.7148016525
 H       -11.5959690608        5.7793090038        5.3284903988
 H       -12.4142459046        5.5135126250        3.7973803408
 H       -13.3154779730        2.4195459268        5.9061896353
 H       -13.4261776743        4.0159040899        5.1218382299
 H       -12.3049661445        3.8250661436        6.4814570345
 H       -10.3329041686        2.0231826027        5.9404883666
 H       -10.0248477421        1.4966196840        4.2399463394
 H       -11.4662356300        0.9904222392        5.2022393714
 H       -14.5380493764       -0.2853906536       -0.9678292557
 H       -12.8936809695       -0.4249232572       -1.5805476544
 H       -13.3892155662        1.0362556415       -0.6514491549
 H       -14.3609765410       -2.4061368207        0.1302473676
 H       -13.1294851929       -2.9072983364        1.2751809414
 H       -12.6919919238       -2.6016330945       -0.5419825047
 H        -5.6093760077       -3.2500802257        0.9134105124
 H        -6.9807051627       -2.8010875111       -0.0350642619
 H        -7.1154422106       -3.4624104342        1.6352258426
 H        -6.3655797480       -0.1107462490        3.3039264209
 H        -4.9990287810       -1.0858479826        2.8869573570
 H        -6.4317310773       -1.8711618093        3.5025600382
 H        -4.9937392037        4.3050461013       -1.3599609298
 H        -5.9672379556        5.6340802632       -1.7996349103
 H        -6.2986779884        4.0247612309       -2.4544573223
 H        -7.6318410197        6.0517844441        0.4285639926
 H        -5.9611640164        5.4307896792        0.8893208739
 H        -7.4696366312        4.7045558153        1.5291447792
 H       -10.9020040962        8.0287995025        0.3701891832
 H       -12.3085123531        6.9327639863        0.5984427423
 H       -12.4473290105        8.6174373325        0.2680158132
 H       -13.8902947052        7.1152018788       -1.9703855347
 H       -13.1854696556        5.6382022289       -1.2784833215
 H       -12.8477900127        6.2464998770       -2.9240002776
 H        -8.6082750886       11.4778823691       -6.0080053170
 H       -10.0015670788       10.5399436654       -6.6754413039
 H        -8.3543898945       10.4794305778       -7.4388573412
 H        -9.3510454766        7.4992117332       -6.7048421604
 H        -7.6750482672        7.2802702202       -6.0005829182
 H        -7.9373109036        8.2619839065       -7.5144501350
 Na       -9.5823576945        2.3026189449        1.7231878268
