117

 C        -6.1341350035        8.5893592527       -4.7395841809
 C        -7.1484108339        9.7419142008       -4.7465001086
 O        -6.9240471847       10.8560467851       -4.2623305884
 C        -8.4647073378        9.4709240783       -5.4983831227
 C        -9.3878746717        8.9415717920       -4.3316866748
 O        -9.5828097236        7.7838745267       -4.0109638657
 C        -9.9378763261       10.0763463219       -3.4060187860
 C       -10.4060306906        9.4485801656       -2.0679006212
 C       -11.6659431053        8.6077259081       -2.3253437249
 O       -12.4484868476        8.9297096676       -3.1669756804
 C       -11.7513698938        7.1889285017       -1.3469876055
 C       -10.4523507399        6.4569868947       -1.5369432333
 O        -9.3985537607        6.8354878950       -0.9641253091
 C       -10.3868931157        5.1245808383       -2.3837974888
 C        -8.9633851662        4.5909335485       -2.4424245343
 C        -8.5666322180        3.8716665497       -1.1450526351
 O        -9.4315294498        3.2502368425       -0.5670447055
 C        -7.0546158523        3.9646630630       -0.6301472010
 C        -6.5342289559        2.6323968365        0.1237724205
 O        -7.1546057276        2.2074441974        1.0748690039
 C        -5.1469615434        2.1165013659       -0.2263099892
 C        -4.9518498700        0.7075229201        0.3539866553
 C        -6.1163083320       -0.3034486694        0.1575089674
 O        -6.5489707384       -0.5943093850       -0.9342055843
 C        -6.6034010576       -1.1592895776        1.4128619629
 C        -8.1317656209       -0.8769558004        1.6516928547
 O        -8.4769450721        0.0773404231        2.3839313047
 C        -9.2353608779       -1.5445499298        0.9010432536
 C       -10.5497855319       -1.5430945445        1.7179730533
 C       -11.5322525550       -0.5454614950        1.0029592878
 O       -11.1259559353        0.5207455122        0.6364991501
 C       -13.0130028753       -0.9539034604        0.6039299854
 C       -13.8683902129       -0.5521521629        1.7908719712
 O       -14.1018319071       -1.2189392263        2.7900078838
 C       -14.3933424032        0.9158395754        1.7995638159
 C       -13.8720171791        1.7489374057        2.9993745295
 C       -12.5780756970        2.5046275850        2.8927173431
 O       -12.0456481831        2.7194261942        1.8180988822
 C       -11.8035890223        2.9367427441        4.2282596687
 C       -10.9606950203        4.1654963711        3.8814194422
 O        -9.9058552103        3.9746122940        3.2565230333
 C       -11.2275654187        5.6129354490        4.2797719395
 C       -12.8181101087        3.1341818529        5.3554370315
 C       -10.8057497906        1.8276979793        4.6138997171
 C       -13.3836394202       -0.2580080011       -0.7257411148
 C       -13.1295121028       -2.4961957527        0.3347151430
 C        -6.3217647748       -2.6361922996        1.1044969992
 C        -5.8303460986       -0.7856180855        2.7073764829
 C        -5.9875753893        4.2533723230       -1.7884678764
 C        -7.0943676723        4.9515964516        0.5711791308
 C       -12.1330681236        7.7259666554        0.0082598372
 C       -12.8960059449        6.3534856388       -1.7945428953
 C        -8.9909681154       10.8138398689       -6.0243512603
 C        -8.2727973413        8.3500090869       -6.5969017422
 H        -5.2734866537        8.9076135575       -4.1000888332
 H        -5.7586161626        8.4591976391       -5.7204482499
 H        -6.5576867334        7.7074456567       -4.2983069518
 H       -10.7998262516       10.6188627905       -3.9495685157
 H        -9.0897353345       10.7273137486       -3.1653884457
 H       -10.7989469522       10.3156433960       -1.5083975066
 H        -9.6431013749        8.8707890242       -1.4903284554
 H       -10.6271604113        5.3353860354       -3.3439044314
 H       -10.9724982829        4.3697216643       -1.9320362092
 H        -8.1673576355        5.3621801782       -2.5955514852
 H        -8.8554709016        3.9106848291       -3.3105458834
 H        -4.4291677455        2.8591638765        0.1222175276
 H        -4.9532778110        1.9978236002       -1.3152435323
 H        -4.8064369904        0.8138264776        1.4582186581
 H        -4.0436298678        0.2093405359       -0.1903406989
 H        -9.0564182962       -2.6724710595        0.6606837463
 H        -9.2549681713       -0.9588355350       -0.1096617863
 H       -10.3689203559       -1.0946724195        2.7378450839
 H       -11.0253543693       -2.5837346879        1.7194156880
 H       -15.4812815987        0.8591427261        1.6429379967
 H       -14.0152588512        1.5283799267        0.9034472698
 H       -13.7863852405        1.0278492098        3.8140585151
 H       -14.7780195638        2.4423313286        3.2144002006
 H       -10.3883337602        6.2769077769        4.0477961380
 H       -11.5172661752        5.5780659188        5.3255401264
 H       -12.1493373767        5.8305238308        3.8023452145
 H       -13.6292157873        2.4628204911        5.3262137387
 H       -13.3889710215        4.0514938194        5.3116303724
 H       -12.4352306076        2.9903238031        6.3799740085
 H       -10.1285182448        2.2534785236        5.3526816369
 H       -10.2832483515        1.4449374714        3.7148538609
 H       -11.3776662367        1.0327213248        5.0982519892
 H       -14.4681592483       -0.2487261010       -0.7980323609
 H       -12.9271591532       -0.8133602053       -1.5507390033
 H       -13.0013833609        0.7578294721       -0.7421016588
 H       -14.0330317358       -2.5002756953       -0.1800251122
 H       -13.3786276053       -2.9364815918        1.3246729407
 H       -12.3964605257       -2.9446640271       -0.2688403393
 H        -5.2617383800       -2.7684726121        0.8480204086
 H        -6.8457369819       -2.7686176913        0.1409010339
 H        -6.6691295274       -3.3868582425        1.8374611823
 H        -5.9244041225        0.3054444754        2.9845253642
 H        -4.8123225417       -1.0565685868        2.6249100367
 H        -6.2502437346       -1.2674782816        3.6229933574
 H        -5.0297553763        4.5092765486       -1.2983678561
 H        -6.2435848491        5.1929004546       -2.3544836627
 H        -5.9586593655        3.3845022442       -2.4309193611
 H        -7.4252450525        5.9486394588        0.2818594157
 H        -6.1071709573        5.0219930620        1.0473927518
 H        -7.9101669916        4.6016712730        1.1636056107
 H       -11.4040704681        8.4953178825        0.3199545975
 H       -12.1835866408        6.9113413137        0.7650002377
 H       -13.0443886379        8.3389135802       -0.0197390625
 H       -13.8274835917        6.8214065942       -1.5242767215
 H       -12.8383047768        5.3605971617       -1.2051256887
 H       -12.9379733685        6.0814958569       -2.8531764884
 H        -9.0194546896       11.5183024401       -5.2126069128
 H        -9.9640968468       10.6932464200       -6.4777597583
 H        -8.4120168306       11.1812305422       -6.8657003709
 H        -9.0650693519        8.4586988264       -7.2989764597
 H        -8.4894968429        7.4238507013       -6.0893333293
 H        -7.3498328774        8.4168112154       -7.0783992808
 Na       -9.5971299183        2.2180800107        1.5185013582
