117

 C       -14.7434350216        1.9471551497       -0.9275920601
 C       -13.4337719347        2.4100123134       -0.3881674392
 O       -12.5018251695        1.8259850941       -0.9073011798
 C       -13.2424528212        3.6649824512        0.4795489348
 C       -12.2162616984        3.0287725850        1.5940048990
 O       -11.0583676049        3.2950907709        1.7056101597
 C       -12.8722286164        1.6825999366        2.2276771165
 C       -12.0789411818        1.0953242335        3.3920762574
 C       -12.1108908698       -0.5686489971        3.6218057702
 O       -12.8741383461       -0.8381422517        4.5077788420
 C       -11.0902539400       -1.5605144386        2.8894234355
 C       -10.6954575490       -1.1541339407        1.4633810857
 O       -10.3435013588        0.0383493297        1.3645959234
 C       -10.5328724929       -2.2578919624        0.5119543816
 C        -9.5944004889       -2.0321460446       -0.7586201143
 C       -10.4785850476       -1.2996617213       -1.8284690506
 O       -11.1876822791       -0.4450759780       -1.4093762833
 C       -10.1017661097       -1.5470553302       -3.4316220175
 C        -8.5945123987       -1.4538524223       -3.5847494307
 O        -7.7162167369       -2.2420203208       -3.2354934660
 C        -8.0034944420       -0.2251830429       -4.3242865150
 C        -6.7894891111        0.2296294319       -3.4607367102
 C        -7.3465850677        0.7050854608       -2.0154528289
 O        -8.4633720133        0.3587249560       -1.7092869080
 C        -6.5010930817        1.7778702077       -1.2882586683
 C        -7.4855067098        3.1459536035       -1.4537191930
 O        -8.4255112074        3.3012007319       -0.7240651116
 C        -7.0479204838        4.2849583269       -2.3824309404
 C        -7.8869726005        5.5148895715       -2.0461279351
 C        -6.9500568116        6.2629213945       -0.9382848149
 O        -5.7860947830        6.6716437959       -1.1791957013
 C        -7.5518907826        6.8301334620        0.3298484108
 C        -8.1072964327        8.3161435935       -0.1403555764
 O        -8.9973946755        8.3592029423       -0.9600832918
 C        -7.3953236810        9.5210665877        0.3092994622
 C        -8.1934764602       10.7668676764       -0.1518636480
 C        -9.4629783510       10.9327263755        0.8018813350
 O        -9.6060611742       10.1546684898        1.7265803329
 C       -10.5305354968       12.0186895093        0.4084655971
 C       -11.5448706020       11.3874349920       -0.7532550845
 O       -12.0200826758       12.2582437282       -1.4464331054
 C       -12.0216836905        9.8829446834       -0.7674444005
 C       -11.4580617501       12.2069930968        1.7190281614
 C       -10.0503369239       13.3508173990       -0.1489384055
 C        -8.7468413456        6.0267311623        0.8559160650
 C        -6.4307402300        7.0347976677        1.4455705361
 C        -6.4544482769        1.4873622403        0.2185060717
 C        -5.0967248486        2.2555470095       -1.6178069368
 C       -10.6548402627       -3.0024916779       -3.4988197159
 C       -10.9625318829       -0.5530169578       -4.2928024603
 C        -9.7806079260       -1.5319204792        3.7993452094
 C       -11.8468232384       -2.9285070717        2.9653405581
 C       -12.6104330040        4.7687266173       -0.3445239689
 C       -14.4503998904        4.1912090114        1.3313952520
 H       -14.5735151547        1.0218490290       -1.4249845086
 H       -15.0428008547        2.7399385561       -1.6415033517
 H       -15.5067007933        1.8255231659       -0.1329536406
 H       -12.7125685049        0.9903307051        1.3167033061
 H       -13.8955391649        1.9150650240        2.4108721838
 H       -12.4396160642        1.3289111144        4.4141452741
 H       -11.1219962578        1.5425768050        3.1849363737
 H       -11.4398947890       -2.7479219750        0.2693038263
 H       -10.1474073837       -3.0832973831        1.1193848544
 H        -9.1260596130       -2.9180145578       -1.1489610827
 H        -8.7875233683       -1.3157998705       -0.4504246571
 H        -8.8009985810        0.4567593910       -4.3692429359
 H        -7.6665890641       -0.5650984779       -5.3361106577
 H        -6.1320434358        1.0565146675       -3.9397965052
 H        -6.1190673025       -0.5954929779       -3.5441711433
 H        -7.2197687992        4.0378158933       -3.4717548818
 H        -5.9523782746        4.6631539538       -2.2561510658
 H        -8.8047682952        5.3249005665       -1.5515167944
 H        -8.0316665889        5.9820273271       -3.0153221297
 H        -6.3488637141        9.3599091567       -0.0156206996
 H        -7.2122495030        9.4373907798        1.3561331437
 H        -8.5611920923       10.7303916152       -1.1592936405
 H        -7.4075427590       11.5507485387       -0.1797307756
 H       -11.2429935376        9.1760413334       -1.1938159871
 H       -12.8804135851        9.9156249978       -1.4329472364
 H       -12.2484245377        9.3869216531        0.1743723764
 H       -12.2250054907       13.0868014982        1.7184660753
 H       -10.8535677195       12.6594508426        2.6337060302
 H       -12.0172354103       11.2328166515        2.0647346459
 H       -10.8503772524       13.8967246798       -0.5306606642
 H        -9.4183622413       13.1255623614       -0.9522009784
 H        -9.5671614428       13.9866488877        0.6911476277
 H        -8.9057652763        6.2880424954        1.8753980460
 H        -8.7603350200        4.9555975452        0.7248666980
 H        -9.6022394213        6.4042894992        0.4114474444
 H        -6.8898586023        7.4795318245        2.4120957360
 H        -5.4767523014        7.5023184787        1.2445130617
 H        -6.0497382103        6.0315831117        1.7832099878
 H        -5.7347796271        0.5740314268        0.4715514327
 H        -7.4698133378        1.2866736971        0.5797600049
 H        -5.9252055904        2.3358732397        0.6799331922
 H        -4.9413874673        3.0869776564       -0.9922000994
 H        -4.7946587810        2.5506538797       -2.6283830741
 H        -4.5163954709        1.3884897350       -1.3779183589
 H        -9.9072019766       -3.7802828109       -3.8170262114
 H       -11.6062424300       -3.0588585982       -4.1578711202
 H       -10.9105447667       -3.2025198393       -2.4149361661
 H       -10.3593840769       -0.3366887264       -5.1956503308
 H       -11.3020985595        0.2930256039       -3.7615490125
 H       -11.7786512821       -1.1091403289       -4.7597500983
 H        -9.3331658533       -0.5894913955        3.6122973159
 H        -8.9531302497       -2.1688135917        3.5344669018
 H       -10.0954047781       -1.7619230798        4.7565164496
 H       -12.2284732000       -2.9120215263        3.9931199765
 H       -11.2340267089       -3.8387591482        2.9325316481
 H       -12.7200835348       -3.0592090468        2.2799755761
 H       -11.5696965950        4.6982788097       -0.5331022921
 H       -12.7700817060        5.6945761797        0.1975253934
 H       -13.1330843129        4.9990081007       -1.3327726721
 H       -13.9305217698        4.5679034452        2.2337751617
 H       -15.1631956644        3.3860831193        1.5572692576
 H       -14.9756232779        4.9244393988        0.7925611174
 Na      -10.1407408680        1.6345844910       -0.0711143995
