117

 C       -14.9882762614        2.0022723148       -0.8037844117
 C       -13.4965759532        2.4513992157       -0.5796402218
 O       -12.4177902410        1.8479122174       -0.8491778115
 C       -13.1992735283        3.6608932236        0.5550080688
 C       -12.3311753601        2.8799061013        1.5857216481
 O       -11.2147960406        3.2534477311        1.9090217355
 C       -12.8800782690        1.5903572180        2.2972615320
 C       -11.9811460477        1.1029511285        3.3620500609
 C       -12.1829748844       -0.4260844638        3.6472849594
 O       -12.9244585210       -0.9639441769        4.4634246635
 C       -11.1495589246       -1.4768105983        3.1048769171
 C       -10.5615500872       -1.1045998877        1.6317587059
 O       -10.3970288302        0.0804368029        1.4127039636
 C       -10.3879823110       -2.2526686047        0.6297561049
 C        -9.7930096584       -2.0948257325       -0.8221241807
 C       -10.3905209090       -1.0178097312       -1.8324689733
 O       -11.2091381059       -0.1363456721       -1.6434233166
 C       -10.1948797330       -1.5318791498       -3.2912880502
 C        -8.5850187355       -1.5235789781       -3.6068768867
 O        -7.9003368086       -2.3448104633       -3.0911064616
 C        -7.8642328318       -0.2094692302       -4.3255077474
 C        -6.7182911956        0.1878511826       -3.3732808728
 C        -7.2576971388        0.7469558859       -2.0892293033
 O        -8.2564335997        0.2636239995       -1.5965006474
 C        -6.4185485011        1.8310947476       -1.0917923834
 C        -7.4306573084        3.0026372437       -1.2800947590
 O        -8.5107991380        2.9253522527       -0.6875283937
 C        -7.0884810026        4.0791894763       -2.3106176176
 C        -7.8373944272        5.4829329458       -2.0868592283
 C        -7.0562849261        6.2849001863       -1.0450991124
 O        -5.8884339409        6.3379612736       -1.3455311769
 C        -7.6536131294        6.9715980926        0.2446680486
 C        -8.0931224741        8.3404472233       -0.2556688316
 O        -8.9882975589        8.2640529799       -1.0439379985
 C        -7.2879943381        9.6049897761        0.2404290559
 C        -8.1576381773       10.8522014272       -0.0965544798
 C        -9.4868855886       10.8817622478        0.6034045119
 O        -9.8168845377        9.9582359752        1.3692123927
 C       -10.4294377776       12.0549356781        0.3132964066
 C       -11.4756661453       11.5485374960       -0.7327623092
 O       -11.9217063387       12.2289115200       -1.6612606763
 C       -11.8709855061       10.1136361219       -0.6430281638
 C       -11.3676727965       12.2696948163        1.5817655561
 C        -9.9755973242       13.4477971639       -0.0332344095
 C        -8.7820780942        6.1642856318        0.8950545865
 C        -6.4124777627        7.0074018754        1.3039619282
 C        -6.4509671293        1.5598917801        0.4319517867
 C        -5.0279509161        2.1542150633       -1.6359497363
 C       -10.8185002073       -2.9947160697       -3.4091549517
 C       -10.7939461952       -0.4445480522       -4.2754968545
 C        -9.9638151324       -1.5798172568        3.9567101474
 C       -11.8865804290       -2.9540633449        3.0293249494
 C       -12.5021531544        4.7580247954       -0.3251943461
 C       -14.4222863681        4.3218800350        1.2802397311
 H       -15.0292196687        1.0305448314       -0.3478159026
 H       -15.2312620133        1.9405360103       -1.8869884884
 H       -15.7246335297        2.6871999514       -0.2883620181
 H       -13.0586833465        0.8807027326        1.4948770351
 H       -13.7644354174        1.9350958738        2.7549851336
 H       -12.2478095939        1.5681267086        4.3634744163
 H       -10.9851018285        1.3521760872        3.0918975366
 H       -11.2366868796       -2.8066364172        0.4907337708
 H        -9.8243129889       -3.0352652427        1.0963613879
 H        -9.9812869647       -3.0535666979       -1.2589368296
 H        -8.7026256350       -2.0336208318       -0.8350936039
 H        -8.6371345956        0.5037863869       -4.4711336839
 H        -7.4515781394       -0.5462146199       -5.2092412452
 H        -6.1232434552        0.9488522894       -3.7363410760
 H        -6.1056339029       -0.6570597125       -3.3857297300
 H        -7.6521405280        3.6201930366       -3.2758994087
 H        -6.0622584019        4.3121432424       -2.5372534825
 H        -8.8984268790        5.4380935084       -1.9614974465
 H        -7.6186812172        5.9339501122       -3.0454679070
 H        -6.3036199104        9.5148306130       -0.0758749688
 H        -7.0735092629        9.5361512654        1.3225525078
 H        -8.4677563220       10.9829720168       -1.1726992633
 H        -7.5344433726       11.6910086386        0.0855364332
 H       -11.0016066665        9.5218276705       -0.7443249298
 H       -12.6217530397        9.9118716922       -1.5509655982
 H       -12.2906009933        9.7158855100        0.2875103940
 H       -12.0772751131       13.1190268843        1.5232890687
 H       -10.8200119303       12.5951164785        2.4567984996
 H       -11.9060086142       11.3097563785        1.8502728927
 H       -10.8857516940       13.9510758764       -0.4072575156
 H        -9.2293633322       13.5114731050       -0.7339032130
 H        -9.7468419487       13.9076603136        0.8035132036
 H        -9.0302590721        6.6222291100        1.8688822086
 H        -8.1892283584        5.2422522869        1.1346853530
 H        -9.6643932816        5.8911745120        0.3717187187
 H        -6.4975723474        7.6092738873        2.2350298318
 H        -5.5208193948        7.3797514610        0.7465138489
 H        -6.0164786717        6.0752252832        1.6313489202
 H        -5.7850370647        0.7833493524        0.6923103146
 H        -7.4648321221        1.3598952411        0.8114377454
 H        -5.9432040047        2.4642930391        0.8370298700
 H        -4.5146664575        3.0173027036       -1.1612164839
 H        -5.1191093586        2.4166784955       -2.7026274467
 H        -4.5489799602        1.1920944895       -1.7750321154
 H       -10.0157668948       -3.7354657713       -3.7425141739
 H       -11.5975176972       -2.8678356283       -4.2319858006
 H       -11.2884121054       -3.3330198194       -2.4866757365
 H       -10.1744248405       -0.3277949702       -5.2100212102
 H       -10.7467452051        0.4622042976       -3.6677713300
 H       -11.8057886868       -0.6647163780       -4.6281921284
 H        -9.7233201405       -0.5796029015        4.2686728163
 H        -9.0716306445       -1.7358816338        3.3656337729
 H       -10.0210334866       -2.3317218709        4.6920552134
 H       -12.5333376448       -3.1911929470        3.8797085660
 H       -11.1575075714       -3.7021901866        2.9492424579
 H       -12.5016231940       -3.0736206717        2.0462485539
 H       -11.6850738317        4.4587074211       -0.9370823442
 H       -12.1369577373        5.6456386924        0.2731161158
 H       -13.2369316260        5.2483691217       -0.9739207821
 H       -14.2395151034        4.3816204301        2.3641668827
 H       -15.3011537103        3.7850431256        1.1006004039
 H       -14.5701456657        5.2783932746        0.7046909016
 Na      -10.1185157313        1.7028164979       -0.2293446453
