117

 C        -5.7258595767        8.5102416363       -5.2140515192
 C        -6.7484707109        9.5585170545       -5.6536618437
 O        -6.7291869633       10.7415489806       -5.5327221045
 C        -8.1832621280        8.9528670759       -6.0836069472
 C        -8.9469553798        8.6319512454       -4.7680492077
 O        -8.6973743803        7.6953109857       -4.0382348000
 C        -9.8635550416        9.8391690029       -4.3034289356
 C       -10.2794340872        9.5109341348       -2.9069464521
 C       -11.4942288927        8.4869300556       -2.9210921345
 O       -12.1516694139        8.2658375312       -3.8922195798
 C       -11.7725623611        7.6891318431       -1.6203202880
 C       -10.4431928348        6.8732989150       -1.4689233020
 O        -9.4658688345        7.1789173444       -0.7929243913
 C       -10.3896358308        5.5100902116       -2.2717925884
 C        -9.0540861205        4.8180506184       -2.3372244010
 C        -8.7451381336        4.1512644770       -0.9609374708
 O        -9.6306157674        3.9336206255       -0.1821343893
 C        -7.3049567492        4.0701759935       -0.3662726478
 C        -7.0071712531        2.5819941223       -0.0244969088
 O        -7.7828555143        1.7485666707        0.4419136248
 C        -5.5639186934        2.0502962022       -0.0909830549
 C        -5.4345989121        0.8988161274        0.8850305594
 C        -6.3822106982       -0.3687386081        0.4905920531
 O        -6.9012650525       -0.4463760222       -0.5836381024
 C        -6.8319861732       -1.4348202717        1.6727571400
 C        -8.2449792696       -0.9258976311        1.9115942938
 O        -8.2984745832        0.1333950372        2.5739388774
 C        -9.4410169129       -1.5621096806        1.2682249236
 C       -10.7839213111       -1.1314190376        1.8274760861
 C       -11.4833772793       -0.2076416915        0.7355458180
 O       -10.8379711292        0.4885655184       -0.0093558528
 C       -13.0721029473       -0.2991469597        0.6401316916
 C       -13.6311526077       -0.2510094272        2.1547121423
 O       -13.1584968061       -0.9528201261        3.0265295548
 C       -14.6220987980        0.8827605753        2.6467135219
 C       -13.9675167411        1.6280016689        3.8635781373
 C       -12.5486568671        1.9963803722        3.5512144811
 O       -11.9423423649        1.6101899619        2.5664007651
 C       -11.6493208110        2.6835141017        4.6978333608
 C       -10.7935238999        3.9369795111        3.9466067566
 O       -10.0570831342        3.8285719179        2.9901667469
 C       -11.0838933734        5.4140456702        4.3934141320
 C       -12.4998461529        3.2060715628        5.9508845934
 C       -10.5799291837        1.6930473645        5.1516144045
 C       -13.6608523501        0.8889024562       -0.2026361968
 C       -13.5015961176       -1.5486815358       -0.0861546888
 C        -6.7499368427       -2.8236509618        1.0113593756
 C        -5.9877938620       -1.3141412319        2.9451538905
 C        -6.1369713946        4.5477889934       -1.2609599118
 C        -7.2108417747        4.7823742332        1.0642016797
 C       -12.0186875568        8.5798557756       -0.3602212969
 C       -12.9961299162        6.7724812234       -1.8685511593
 C        -8.9427977227        9.9336478758       -7.0220878195
 C        -8.0652288444        7.5324815160       -6.7239698636
 H        -5.0763043923        8.2317128301       -6.0452754003
 H        -6.2521471407        7.6817373944       -4.7737127436
 H        -5.1178580186        8.9810996336       -4.4244125989
 H       -10.7654410802        9.8903065661       -4.9696101581
 H        -9.3213110393       10.8191984660       -4.2948780305
 H       -10.5718068073       10.4465252894       -2.3509476822
 H        -9.5098489037        9.1066373375       -2.2088284589
 H       -10.8022839931        5.6953678314       -3.2743992217
 H       -11.2065021188        4.8869627988       -1.7534642977
 H        -8.3054618427        5.5327844089       -2.6333785132
 H        -9.1467212844        4.0926843267       -3.1051914652
 H        -4.7997902909        2.7655026813        0.1766163668
 H        -5.3236066995        1.5902312114       -1.1236361941
 H        -5.7251527248        1.2350795360        1.8535168582
 H        -4.4216749542        0.5560490150        1.0511353875
 H        -9.4265564606       -2.6353385041        1.3828896675
 H        -9.3403600170       -1.3824025886        0.2051118312
 H       -10.7786175644       -0.6419272431        2.7993557314
 H       -11.4672551081       -1.9651091528        2.0995418883
 H       -15.5452276649        0.4318265970        3.0123737242
 H       -14.8513356797        1.6361349473        1.8229256237
 H       -13.9722442651        0.9918466923        4.7390951202
 H       -14.5787865496        2.5037068778        4.1484937024
 H       -10.2978400446        6.1657814749        4.1327672071
 H       -11.3445318113        5.4997686955        5.4302325105
 H       -11.8870735178        5.6108153444        3.7192186625
 H       -13.1541591941        2.4407671895        6.2171355419
 H       -13.0480832700        4.1063873767        5.6812157015
 H       -11.8195899306        3.3774242404        6.7838176964
 H       -10.1374730079        2.0616664168        6.0800899008
 H        -9.8327632329        1.5602985723        4.3440022567
 H       -11.0975194758        0.7390055852        5.2755936341
 H       -14.7109102997        0.7708020447       -0.3795424147
 H       -13.2243880005        0.9269300042       -1.1934550240
 H       -13.4780127708        1.8626314445        0.2143879236
 H       -14.5577754390       -1.6346548603       -0.2959806356
 H       -12.9784988884       -2.3871461650        0.2573078422
 H       -13.1196554347       -1.3656295643       -1.1321617296
 H        -5.7534970194       -3.0839940683        0.6572610947
 H        -7.4726310648       -2.8272844239        0.1966502257
 H        -7.2388793521       -3.5034320047        1.6885613394
 H        -6.1960870685       -0.3250194720        3.4622599253
 H        -4.9533147395       -1.4643633350        2.7515581798
 H        -6.2821571783       -2.0278937438        3.7464278641
 H        -5.2391805722        4.9117086596       -0.7324179687
 H        -6.4372703951        5.4237067139       -1.9398130680
 H        -5.8159048654        3.7515815399       -1.9532311728
 H        -7.4035441860        5.8353509409        1.0112199393
 H        -6.1917987197        4.6361121656        1.4402205608
 H        -7.8854252052        4.1905093799        1.6747743465
 H       -11.1573438022        9.2448794438       -0.1927559654
 H       -12.1820638807        8.0336179021        0.5838731518
 H       -12.8766022165        9.2800177492       -0.4772124067
 H       -13.7935010529        7.4622387790       -2.0580501822
 H       -13.2677283638        6.1171070792       -0.9718671547
 H       -12.7847103826        6.1956008604       -2.7607709042
 H        -8.9489839665       10.8979642920       -6.5331420265
 H        -9.9443353143        9.6376803539       -7.3243987961
 H        -8.3187790302        9.9629395045       -7.9155234063
 H        -9.0161807744        7.2195565939       -7.1055415562
 H        -7.7229000079        6.8565402456       -5.9865945387
 H        -7.3740720217        7.6107722861       -7.5170134576
 Na       -9.7502499389        1.9733335078        1.5260134490
