117

 C        -5.2927837334        8.8181036366       -5.9436004848
 C        -6.6422136513        9.3257198126       -6.4804922463
 O        -6.9586290052       10.4635475747       -6.6942366091
 C        -7.8374992505        8.2140255756       -6.6902498574
 C        -8.5438352980        8.2337637968       -5.2926523912
 O        -8.2154428345        7.4407927185       -4.4097252118
 C        -9.5435701428        9.3701919851       -5.0092340605
 C        -9.8603448236        9.2524378037       -3.4790559651
 C       -10.9415085701        8.1324116287       -3.3067775939
 O       -11.2223964665        7.2959380376       -4.1928624873
 C       -11.5696636695        7.9378110420       -1.9305659428
 C       -10.7082502164        6.7557339529       -1.2383333128
 O       -10.0113850268        6.9057707344       -0.2486164632
 C       -10.5165894971        5.3695743376       -2.0252848059
 C        -9.0086041331        4.9916376236       -1.9590256660
 C        -8.6861258962        4.3862647414       -0.5168454574
 O        -9.5620215722        3.9815457226        0.2187377574
 C        -7.1657370407        4.1843809689       -0.1005439418
 C        -7.0055750296        2.6895116789        0.3232654610
 O        -7.7584264128        2.1774866254        1.1187145750
 C        -5.9606811324        1.8272588207       -0.3704769014
 C        -5.5228614898        0.6331802504        0.5121035198
 C        -6.6677074863       -0.3933971047        0.4326344869
 O        -7.1171035641       -0.6510445707       -0.6743112721
 C        -7.4035395332       -0.8835737090        1.7706329639
 C        -9.0089475549       -0.5440279437        1.6159673300
 O        -9.6072684119       -0.1081398455        2.5801468297
 C        -9.5361131114       -0.9074584653        0.2286161561
 C       -10.9688618046       -1.4188455283        0.3237688444
 C       -11.9262522604       -0.2277330844        0.3196952840
 O       -11.5607560597        0.9017968702        0.0666720502
 C       -13.4905340492       -0.3376418492        0.7685271838
 C       -13.2676128635       -0.1477259984        2.3477321811
 O       -12.5990830373       -0.9321465759        2.9838013885
 C       -14.1670920344        0.9966946712        3.0424516369
 C       -13.5598583506        1.4713275884        4.3409160960
 C       -12.1671971042        2.0670927297        4.0276148042
 O       -11.8023156999        1.9664402476        2.8740858953
 C       -11.3254121350        2.6745371004        5.2360661458
 C       -10.6168045863        3.9779616588        4.7445269872
 O        -9.8410864722        4.0264563108        3.7838436069
 C       -10.9648454521        5.3109063959        5.4027002887
 C       -12.2843261831        2.7462119410        6.5136765054
 C       -10.1771699773        1.5660073254        5.3981005912
 C       -14.3336560517        0.7498478852        0.1172946864
 C       -14.1501638208       -1.7076536500        0.5067416671
 C        -7.2649522004       -2.3716440969        1.7696158395
 C        -6.8433921656       -0.4129911805        3.1072162392
 C        -6.0763145630        4.7899262897       -0.9711096635
 C        -7.2178534252        5.2213973580        1.1308145037
 C       -11.4166368018        9.1342288999       -1.0383728346
 C       -13.1257424696        7.6763039517       -2.0688938379
 C        -8.8567785954        8.8300307944       -7.7146804115
 C        -7.2738792940        6.8674683175       -7.1103667793
 H        -4.8637908885        8.0347323341       -6.5881432329
 H        -5.3712362909        8.4567470420       -4.8691292102
 H        -4.6271738774        9.7082153339       -5.8403839267
 H       -10.3443393473        9.2021702651       -5.7434347560
 H        -9.1804922517       10.3188334601       -5.2722394816
 H       -10.3390887561       10.1329225528       -3.1333978194
 H        -9.0135175779        8.9572003530       -2.9211406991
 H       -10.7904470698        5.6200806988       -3.0187175934
 H       -11.1215618061        4.5625627279       -1.6710186496
 H        -8.2592967583        5.8794145586       -2.1402545957
 H        -8.7849951073        4.2915276890       -2.7891980024
 H        -5.0934270410        2.4235964579       -0.6789873290
 H        -6.2754584457        1.3798371897       -1.2652084631
 H        -5.4102819381        0.8551946334        1.6294587098
 H        -4.6295515624        0.1455377264        0.0591211696
 H        -8.8723266931       -1.6643622703       -0.3083432340
 H        -9.5848213799        0.0497737069       -0.3309209679
 H       -11.1154122883       -2.0005017609        1.2259566549
 H       -11.2938892122       -1.9065391375       -0.6260923467
 H       -15.1765007383        0.5343164266        3.2323818328
 H       -14.2831020979        1.8094442454        2.3852701833
 H       -13.3582088029        0.6355108409        4.9792569660
 H       -14.2532096725        2.1953152629        4.9172829291
 H       -11.9945234026        5.1857652807        5.7276311722
 H       -10.8612406302        6.1171459121        4.6916941893
 H       -10.2334179323        5.5998868922        6.2002088769
 H       -12.6418608388        1.7308037078        6.7472301896
 H       -13.0963803409        3.4200540795        6.2747303673
 H       -11.8426742695        3.1062127383        7.3972170379
 H        -9.2471493568        1.9624910563        5.8333575020
 H        -9.9224228124        1.3149608172        4.3720378824
 H       -10.5170672657        0.7090593353        6.0036068645
 H       -15.3554907344        0.8234350215        0.4376219702
 H       -14.4925837987        0.6144474447       -0.9577762124
 H       -13.8896590540        1.7441410367        0.1209254929
 H       -15.2726219192       -1.7293092427        0.5065239778
 H       -13.8256998598       -2.4759390587        1.3186379095
 H       -13.8862206771       -2.2402732052       -0.4097998479
 H        -6.2132452019       -2.5675968349        1.8317828725
 H        -7.5455637887       -2.9195814532        0.8591710255
 H        -7.6752044233       -2.8227377282        2.7073573093
 H        -6.9845311231        0.6328313777        3.2234237579
 H        -5.7572155256       -0.5413130445        3.0952269400
 H        -7.3555607003       -1.0360019738        3.8814434402
 H        -5.1386033868        4.4485444540       -0.4498922540
 H        -6.0932688822        5.8801275057       -1.0258194545
 H        -5.9187240323        4.3833852142       -2.0274541999
 H        -7.6266580443        6.1060806375        0.6392935153
 H        -6.1935660503        5.4105409950        1.4411302438
 H        -7.7804203892        4.8288969091        1.9886164156
 H       -10.3727227750        9.0669908320       -0.5956350686
 H       -12.1073332950        9.2038111583       -0.1811768043
 H       -11.6716869878       10.0731736431       -1.6228108361
 H       -13.6407505769        8.6449808047       -2.0560412231
 H       -13.4479079979        7.1793210488       -1.1434404408
 H       -13.4126697405        7.1175754537       -2.9854821980
 H        -9.0972286932        9.8642613539       -7.4308914026
 H        -9.7973232807        8.3011077498       -7.5924933603
 H        -8.5293548679        8.8317720412       -8.7399641858
 H        -8.0119642508        6.0660595229       -7.1104217128
 H        -6.4485657664        6.5658915559       -6.4925696536
 H        -6.8665660318        6.8271050779       -8.1307815379
 Na       -9.9318157195        2.4095377084        1.9153791450
