117

 C        -5.0793221724        8.9147476334       -6.5064737521
 C        -6.6262002196        9.1838621215       -6.8594829111
 O        -7.0867772234       10.2730103603       -6.9937540105
 C        -7.5895600704        8.0144113811       -6.8487809823
 C        -8.4103406927        8.0466174764       -5.4094269108
 O        -8.1920935131        7.2576107962       -4.5285463252
 C        -9.1852983773        9.3800145455       -5.1112678927
 C        -9.7975851604        9.3804846123       -3.6719190727
 C       -10.8294824877        8.2014861050       -3.4651455100
 O       -11.2308566457        7.5563260053       -4.3943279606
 C       -11.3684089490        7.8756395026       -1.9448407910
 C       -10.4416681370        6.7670879012       -1.3671579555
 O        -9.7818842750        6.8659426404       -0.3535270480
 C       -10.4801287721        5.3480541820       -2.0707938401
 C        -9.0794198304        4.7605565441       -1.9355833624
 C        -8.7853069954        4.3494092100       -0.5131923455
 O        -9.6442413481        4.0822487253        0.3448693954
 C        -7.2209091105        4.3590877987       -0.0721840127
 C        -6.8781980703        2.8514402494        0.4303389314
 O        -7.5347213079        2.4109252181        1.3445891625
 C        -5.6776339211        2.1453186294       -0.0504977694
 C        -5.4836699727        0.7090968066        0.6165890955
 C        -6.6969635026       -0.1583867498        0.3158182696
 O        -7.0150331672       -0.5058157757       -0.7920877178
 C        -7.5695538639       -0.7964077578        1.6201382182
 C        -9.0486849492       -0.4728938848        1.3531825329
 O        -9.6371971378        0.2988314211        2.0663560207
 C        -9.7083838488       -1.1780569355        0.1414856828
 C       -11.2967970063       -1.2920655297        0.2936810776
 C       -12.1502019949       -0.0085647215        0.5020137186
 O       -11.7614654054        1.1348853368        0.4035762124
 C       -13.6534476439       -0.2785155572        1.0432084538
 C       -13.5777941705       -0.2252825201        2.6397729244
 O       -12.8270718784       -0.9832001312        3.2006593542
 C       -14.4048640786        0.8487380425        3.5157618651
 C       -13.5818755474        1.2831378846        4.7189067280
 C       -12.3539161286        2.1015991364        4.2712406978
 O       -12.1669005233        2.4129567979        3.1208451363
 C       -11.3025164634        2.4390666058        5.3070096028
 C       -10.7181158301        3.8775707270        4.7326799547
 O       -10.0420945900        3.9709576964        3.7224662723
 C       -10.8301263598        5.1032983777        5.6181059553
 C       -12.0337586785        2.5647277613        6.6581695443
 C       -10.1978453644        1.3262787060        5.2670504170
 C       -14.5919057308        0.7727739790        0.4597818246
 C       -14.1820103042       -1.6549444534        0.5141557073
 C        -7.1561691983       -2.2983910847        1.7002641468
 C        -7.1377206112       -0.1455330974        3.0427206168
 C        -6.3360190976        4.9768657669       -1.2157754169
 C        -6.9532189501        5.1875882720        1.1811747310
 C       -11.4298546460        9.1363788207       -0.9936699825
 C       -12.7968699905        7.1698451358       -1.9666940949
 C        -8.6578807415        8.2387685725       -7.9594087615
 C        -6.8297125880        6.6786659268       -7.0486252770
 H        -5.0616650434        8.7082604175       -5.4154689389
 H        -4.4020687419        9.7331397193       -6.6591758947
 H        -4.6452601810        8.0513471948       -6.9961612914
 H       -10.0377464637        9.5287920744       -5.8180326404
 H        -8.5169432564       10.1498907009       -5.3719637175
 H       -10.4099853550       10.2710129598       -3.5645747004
 H        -9.0732169855        9.2553561454       -2.8932906474
 H       -10.5156574418        5.6664803489       -3.1351806835
 H       -11.3806243118        4.7931118187       -1.7665677545
 H        -8.3637508228        5.5854110519       -2.3169862571
 H        -8.8888743161        3.9332233608       -2.6196389078
 H        -4.7677957203        2.6929873211        0.2258322143
 H        -5.6664887472        2.1971955419       -1.0736483844
 H        -5.2277933880        0.7960187630        1.7015293202
 H        -4.7486248681        0.2117830072        0.0259430617
 H        -9.2682541505       -2.1440798570       -0.1374875013
 H        -9.6082243452       -0.4725765638       -0.6225360703
 H       -11.4270446981       -1.8006313830        1.1999474916
 H       -11.7606422159       -1.8826711433       -0.5334557065
 H       -15.2990201002        0.3157384812        3.8411859313
 H       -14.6600055788        1.6453242044        2.9347433124
 H       -13.2131329333        0.4408717328        5.1966377075
 H       -14.1901581501        1.8782708821        5.4364752027
 H       -11.7552613791        5.5655645135        5.3930200659
 H        -9.9357685040        5.6888543687        5.3664690104
 H       -10.6986735904        4.8901288814        6.6997823984
 H       -12.3766299903        1.5475263307        6.9364202075
 H       -12.9513869588        3.0992577133        6.6395020638
 H       -11.4068747194        2.8544911801        7.4428002349
 H        -9.4169774277        1.3988541749        6.0379821978
 H        -9.7017831926        1.3907137161        4.2956671133
 H       -10.7132529239        0.3479420923        5.2526336361
 H       -15.6216125071        0.6254342279        0.7274539473
 H       -14.6036286662        0.7126814180       -0.6212269180
 H       -14.3623010572        1.8193416241        0.5903877682
 H       -15.2798625548       -1.7427610114        0.6049501759
 H       -13.7212546270       -2.4691293187        1.1835841231
 H       -14.0073080906       -1.9558056075       -0.4924670277
 H        -6.1414660662       -2.3355381800        1.9991970933
 H        -7.1824436848       -2.7661646585        0.7148512566
 H        -7.7979625258       -2.9659405284        2.3031613207
 H        -7.2220371890        0.9062367980        2.9357450252
 H        -6.1253150474       -0.5549870795        3.3253881456
 H        -7.8571797282       -0.3943470878        3.8586690910
 H        -5.2545014443        4.8045497519       -0.9928987440
 H        -6.3520138111        6.0400711774       -1.1617572160
 H        -6.5444722552        4.5470469781       -2.2037222731
 H        -7.1488633636        6.2002205439        0.8532113106
 H        -5.9559290587        5.1342113595        1.5615654131
 H        -7.6668043155        4.8448385604        1.8910426956
 H       -10.5408305044        9.7650611152       -1.0515383074
 H       -11.6594794370        8.8283932000        0.0323223407
 H       -12.2795711539        9.6822042232       -1.3576108882
 H       -13.5604149086        7.7474989737       -2.5195624906
 H       -13.1243012778        7.1473798393       -0.9542714386
 H       -12.7688269711        6.1256339011       -2.3327370676
 H        -9.0080021631        9.2749922675       -7.9055964338
 H        -9.5196269413        7.6028820098       -7.7715088262
 H        -8.3439979693        7.9699439282       -8.9510793564
 H        -7.4081823823        5.8575659217       -7.3424711844
 H        -6.2286336495        6.3230511977       -6.2519897929
 H        -6.1405184609        6.8466694093       -7.8329339077
 Na      -10.0146874662        2.4365300019        1.9542874180
