117

 C       -15.1991463836        2.1167420778       -0.7220619299
 C       -13.6576318624        2.4437959730       -0.5005362702
 O       -12.7586561906        2.0268560295       -1.1455088308
 C       -13.1963343238        3.6113797414        0.7106035126
 C       -12.3928541903        2.8890321998        1.8468626362
 O       -11.2451307909        3.2116061726        2.0588997611
 C       -12.9816663271        1.6318112930        2.4629593305
 C       -11.9798559608        1.1550329937        3.5852205744
 C       -12.2805290210       -0.4394837475        3.7299318560
 O       -13.2248006912       -0.7907757023        4.3397976925
 C       -11.2681747726       -1.5292550274        3.2199923982
 C       -10.6218620270       -1.0591580042        1.7572264366
 O       -10.2826823114        0.0933478667        1.4174249913
 C       -10.4882285803       -2.2122408690        0.6539564373
 C        -9.8131379610       -1.9013899525       -0.7506679168
 C       -10.4710699454       -1.0187214642       -1.8610059302
 O       -10.8825343434        0.0901738013       -1.6051815646
 C       -10.2852162894       -1.3759150430       -3.3663695032
 C        -8.6032927809       -1.6247136788       -3.3421649636
 O        -8.1368166716       -2.6637364805       -2.9469313089
 C        -7.6752314513       -0.5031960700       -3.9231431571
 C        -6.5314339901        0.1145976406       -3.0553237858
 C        -7.0605294433        0.5917962759       -1.7181015043
 O        -8.1157066291        0.1706068320       -1.2601216813
 C        -6.3577182419        1.7642552175       -1.0996523807
 C        -7.4251519788        2.9388659978       -1.3457694589
 O        -8.3790413372        3.0180274131       -0.6463554061
 C        -7.3738766273        3.9773027953       -2.5092078487
 C        -7.9288871382        5.2393315728       -1.9853225127
 C        -7.0389985212        6.0669974634       -1.1079219536
 O        -5.8458795627        5.9977120266       -1.3948755644
 C        -7.4645184309        7.0776550860        0.0244536344
 C        -8.0509475384        8.4196421820       -0.5531292150
 O        -9.0320011397        8.3918312115       -1.2798597198
 C        -7.2920669178        9.6935977477        0.0036882853
 C        -7.9968293225       10.9679213869       -0.1057900277
 C        -9.4525753905       10.9161770134        0.4622277215
 O        -9.9342239844        9.9182684539        0.9009612933
 C       -10.4744395366       12.1054790659        0.3513320749
 C       -11.4097085040       11.6877027180       -0.8645405616
 O       -11.5677292276       12.2890781215       -1.9003777143
 C       -12.1229023425       10.2957575980       -0.9525510439
 C       -11.3294606325       12.3139637129        1.5669721639
 C        -9.6823489232       13.4300840425       -0.0329494426
 C        -8.7067790000        6.3045410145        0.8497718928
 C        -6.3587060926        7.0823478410        1.0014139596
 C        -6.2268671995        1.3645248479        0.4113843966
 C        -4.9089922657        2.0231411428       -1.5360835374
 C       -10.7716629887       -2.7949859564       -3.8702863160
 C       -10.9106035018       -0.2709626326       -4.3394481572
 C       -10.0214842485       -1.5636049488        4.2949724624
 C       -11.8881432050       -2.8823524011        3.1134646429
 C       -12.0884448324        4.4884501209        0.0584148051
 C       -14.4718199320        4.4205199336        1.2377415989
 H       -15.8845094565        2.7238582514       -0.1110329141
 H       -15.3116359473        1.0457512545       -0.5206342726
 H       -15.3963335409        2.1918700044       -1.8050552379
 H       -12.9291431664        1.0470036949        1.5230319883
 H       -14.0364413827        1.7387885406        2.7888882042
 H       -12.2254011778        1.6558420972        4.4907703270
 H       -10.9186245573        1.3811042482        3.2989101151
 H       -11.4912055176       -2.7727273071        0.3651573124
 H        -9.9613833393       -3.1217997605        1.0318020047
 H        -9.4731914845       -2.9079318177       -1.1119038178
 H        -8.8460689037       -1.3378906620       -0.5897862826
 H        -8.3948714108        0.3364879170       -4.1698431959
 H        -7.3919804848       -1.0466804195       -4.9015199490
 H        -5.9630896048        0.9120503883       -3.7202532166
 H        -5.7328847436       -0.6331131336       -2.6846817343
 H        -7.8673094168        3.5664451995       -3.3172794630
 H        -6.2899535470        4.1342843096       -2.8887708190
 H        -8.8507548583        4.9104314441       -1.4511802117
 H        -8.2608020665        6.0054247671       -2.7239312024
 H        -6.2376093314        9.6428937973       -0.4438864015
 H        -6.9729892935        9.4035855888        0.9895682994
 H        -8.0539506411       11.1902010921       -1.1537323008
 H        -7.3617405004       11.8128878061        0.3355925578
 H       -11.4053546251        9.5689292993       -1.4178261404
 H       -13.0225889235       10.3370204842       -1.4889635542
 H       -12.3918206747        9.8180056456       -0.0350788867
 H       -12.1983352256       12.8953959231        1.3674781354
 H       -10.8714841395       12.7719983266        2.4279970429
 H       -11.6399901308       11.3958452913        2.0420216166
 H       -10.3381109137       14.2666303754       -0.2001733801
 H        -8.9787405875       13.2634223456       -0.9014582411
 H        -8.9452216609       13.7351428635        0.8902450612
 H        -9.4475040891        6.9892333620        1.3434024364
 H        -8.4243471566        5.4288005025        1.4797255932
 H        -9.1924878051        5.8204731848       -0.0250631036
 H        -6.6013851486        7.4601953205        1.9765584132
 H        -5.4436749924        7.4503528851        0.7146834989
 H        -6.1455547154        6.0459184105        1.2807543691
 H        -5.4662781358        0.5206295385        0.4287552088
 H        -7.1624231815        0.9900474855        0.6447393268
 H        -5.8992522393        2.1153918442        1.0388358289
 H        -4.6651956493        2.8183453963       -0.8853225231
 H        -4.6844409967        2.4145728944       -2.5392026967
 H        -4.3642021099        1.0755783335       -1.5070068343
 H       -10.5631742821       -3.4279191079       -3.0857738179
 H       -10.3268536258       -3.1085265219       -4.7679943666
 H       -11.8542278489       -2.7994692567       -4.0481386202
 H       -11.4179866247       -0.6847012804       -5.2087681897
 H       -10.1496570068        0.4823180546       -4.5954197638
 H       -11.7080997242        0.1703771772       -3.6936584991
 H        -9.8617640620       -0.6172300787        4.8927268512
 H        -9.0858559831       -1.7272576477        3.6915673497
 H       -10.1132385606       -2.5051660641        4.8837272665
 H       -12.2705064456       -3.2076902161        4.0771841817
 H       -11.2165961657       -3.6406666998        2.6282090737
 H       -12.7370327020       -2.8889100600        2.4857178237
 H       -11.6263210914        3.9504238228       -0.8109179374
 H       -11.2811977488        4.8181947226        0.6585781209
 H       -12.4363991033        5.4698167996       -0.3600159719
 H       -14.4200247374        4.3596559898        2.3289612322
 H       -15.4516610196        3.8679126255        1.0697945240
 H       -14.5029153135        5.3753202624        0.8163529625
 Na      -10.4500581765        1.5699931392       -0.3660952235
