117

 C        -5.1068932174        8.9619068718       -7.0695103086
 C        -6.5966076339        8.9942169237       -7.0023204560
 O        -7.1671632520       10.0475943177       -7.2331478388
 C        -7.4422322443        7.7225224850       -6.7374752046
 C        -8.1696231496        7.9122348571       -5.3897210885
 O        -7.8687103674        7.2020430887       -4.4527572911
 C        -9.1191472169        9.1087886773       -5.1838422999
 C        -9.6502614206        9.1198914660       -3.7600055132
 C       -10.8788256941        8.1396875093       -3.6356915011
 O       -11.4379544631        7.6189400801       -4.5345281838
 C       -11.3411058410        7.9067923635       -2.1103905719
 C       -10.2369036747        6.9050811305       -1.7631855264
 O        -9.2609111448        7.1526699229       -1.0856878957
 C       -10.4066056522        5.3757789925       -2.2007393082
 C        -8.9990396054        4.7744598612       -2.1347418074
 C        -8.7002990498        4.3048031229       -0.7296247643
 O        -9.6736424464        3.9502091040       -0.0311641416
 C        -7.2923274705        4.3563795667       -0.1025755759
 C        -6.9687036026        2.9462011527        0.5403267956
 O        -7.7678285466        2.4171831541        1.2937879484
 C        -5.5943764408        2.3096488864        0.2544092078
 C        -5.5107554834        0.9219025669        0.8979578250
 C        -6.7409442975        0.0124322874        0.4211695622
 O        -7.0696829895       -0.0446867110       -0.7433199728
 C        -7.5327984252       -0.8017427998        1.4836282181
 C        -9.0725496725       -0.3021181355        1.3200544966
 O        -9.5330057074        0.3260596182        2.2309049981
 C        -9.8847614868       -0.7722614435        0.1692817164
 C       -11.2777815148       -1.2844920150        0.6425442445
 C       -12.1484923007       -0.0032798184        0.9050229472
 O       -11.7000716337        1.1072440362        0.6217581432
 C       -13.6878658865       -0.1049030686        1.2439832702
 C       -13.8194834569       -0.3053976566        2.8622090477
 O       -13.2533001782       -1.2517631655        3.3683387103
 C       -14.5767868427        0.6855639940        3.7876718169
 C       -13.6845885330        1.2239150398        4.9659250157
 C       -12.5006283766        2.1779982231        4.4440659940
 O       -12.5230649841        2.5212041778        3.3010934352
 C       -11.2082099287        2.4387562429        5.4064339860
 C       -10.4918183920        3.7231339194        4.9650829333
 O        -9.9288711974        3.7899108705        3.8747771469
 C       -10.6227578567        4.9572517011        5.9642306039
 C       -11.7473321885        2.4022923747        6.8095823964
 C       -10.2698006871        1.2228384841        5.0283263183
 C       -14.3982008715        1.0617065233        0.6375470731
 C       -14.3215605012       -1.4077215724        0.6305365238
 C        -7.3176396207       -2.3032134954        1.1162272212
 C        -7.0774078435       -0.5289058237        2.9552208151
 C        -6.2124433191        4.9700654443       -1.0163651637
 C        -7.4630457299        5.3706852593        1.2130009762
 C       -11.2545526703        9.1714251789       -1.2553021671
 C       -12.7898123027        7.3056429519       -1.9708035710
 C        -8.4625121011        7.8215357888       -7.8887822493
 C        -6.5961262884        6.4572999987       -6.8499004295
 H        -4.7636328423        9.9846533822       -7.2641201133
 H        -4.7819899987        8.5283236726       -7.9540064803
 H        -4.6172381486        8.4639011207       -6.2493951044
 H        -9.9697747383        8.9251993351       -5.9337675585
 H        -8.6202021257       10.0127525319       -5.4775218600
 H       -10.0002364496       10.1449193653       -3.4563525717
 H        -8.8399306774        8.8200818786       -3.0523381581
 H       -10.7225369507        5.3972081721       -3.2931512463
 H       -11.1310424791        4.7643044230       -1.5963147770
 H        -8.2209709806        5.5002524648       -2.4456233615
 H        -8.9711013303        3.9604537662       -2.8287035115
 H        -4.8970487923        3.1008933052        0.6548129752
 H        -5.3314729011        2.2039847269       -0.7484531273
 H        -5.5263970116        0.9319993300        1.9795029503
 H        -4.6694096886        0.3494159048        0.5938211199
 H        -9.4035999901       -1.4893521245       -0.4772205170
 H       -10.0469601187        0.1122261809       -0.3727810576
 H       -11.1960086723       -1.8998970049        1.4992620689
 H       -11.6352434389       -1.9745965044       -0.1299824793
 H       -15.3779529729        0.1641310699        4.2806920382
 H       -14.9921565151        1.4623659328        3.2316278801
 H       -13.2743014886        0.4877537030        5.5646038119
 H       -14.4013891478        1.8459799741        5.5416995466
 H       -11.5700950031        4.8888055905        6.3964342089
 H       -10.4799536150        5.8934485846        5.3791630889
 H        -9.8511142356        4.9021487590        6.7462390786
 H       -11.9884140880        1.3971878553        7.2577812363
 H       -12.6983643167        2.9388254696        6.9297246623
 H       -11.0383658889        2.9168390003        7.4785755136
 H        -9.3693214044        1.2768377105        5.6402240111
 H        -9.9953727508        1.2857650947        3.9736829228
 H       -10.7052338811        0.2277926337        5.1373503488
 H       -15.4903112721        1.0133205735        0.6794285026
 H       -14.1172903019        1.0085923910       -0.4128160757
 H       -14.1895723951        2.0791156311        0.9780622639
 H       -15.1683727235       -1.6766521141        1.2316125646
 H       -13.6745569689       -2.2419664150        0.7469936039
 H       -14.5992364801       -1.2990791270       -0.3997070858
 H        -6.3345649735       -2.6014152290        1.4054679488
 H        -7.4718291659       -2.5416166548        0.0730852441
 H        -8.0106771969       -2.9986341547        1.6125040397
 H        -7.3154368591        0.4637484429        3.2211254711
 H        -6.0488106332       -0.9076579314        3.0713272007
 H        -7.6013226973       -1.1583408499        3.6473884574
 H        -5.2430335435        4.8360291067       -0.4945794047
 H        -6.3753493612        5.9842983460       -1.2845252727
 H        -6.1840512346        4.3844512265       -1.8954097280
 H        -7.6848898900        6.3921652155        0.8220128316
 H        -6.5199708750        5.3637997650        1.7662797364
 H        -8.3185971346        5.0321211688        1.7660453803
 H       -10.2457924180        9.3475524408       -1.0228465769
 H       -11.8467603096        9.0202450318       -0.3749849587
 H       -11.5294951765        9.9765036867       -1.8268230666
 H       -13.5785172530        8.0732082538       -1.8664438137
 H       -12.8174629853        6.6669837650       -1.1433564150
 H       -13.0030621812        6.6648877647       -2.8230247261
 H        -9.0062985428        8.7683470045       -7.8166827335
 H        -9.1527235336        6.9691895116       -7.8574723306
 H        -8.0623663315        7.8085981620       -8.9031764741
 H        -7.1765283744        5.5411784574       -6.7636205136
 H        -5.8226956924        6.3121389455       -6.0553234331
 H        -6.0697903220        6.3528762276       -7.8035984459
 Na      -10.4078443086        2.7516998957        1.8051640742
