117

 C        -4.9706914324        8.6677541768       -7.7636847985
 C        -6.4906013347        8.7640766303       -7.4192910389
 O        -7.1393912933        9.7246227789       -7.6853146396
 C        -7.2443552486        7.4327110716       -6.8161819487
 C        -7.9598496421        7.8181619202       -5.4915476687
 O        -7.5916755759        7.3254722727       -4.4424695149
 C        -9.0937332492        8.8752703508       -5.6108908340
 C        -9.7111000647        9.2706018627       -4.2482134129
 C       -10.9465087748        8.3918518872       -3.9074227967
 O       -11.8082167153        8.1650375655       -4.6905796730
 C       -11.0600889079        7.9275713719       -2.4367166441
 C        -9.9870733853        6.8207953553       -2.0539450922
 O        -9.0942939098        7.0001646809       -1.2500475552
 C       -10.0867341157        5.4834457356       -2.7795650203
 C        -8.9743944443        4.4382546739       -2.3353571624
 C        -9.0482103173        4.2261443952       -0.7954048604
 O        -9.9959449824        3.7324228582       -0.2563199382
 C        -7.6953198126        4.4620820375        0.0997952782
 C        -7.3317878340        3.1132811203        0.7328296055
 O        -8.1675286230        2.5818216809        1.4979498070
 C        -5.9146746628        2.5640795921        0.5622696325
 C        -5.8971039788        1.1487900514        1.1708560146
 C        -6.8661192281        0.1975410032        0.5109796397
 O        -7.2326101511        0.3426740758       -0.6270231533
 C        -7.4367339283       -0.9719826142        1.3243188827
 C        -8.9674081277       -0.4421690485        1.6766510124
 O        -9.2539363721        0.0311975119        2.7750998069
 C        -9.9339139034       -0.3830093338        0.4727941232
 C       -11.3913434368       -0.7819968686        1.0099570110
 C       -12.4133539935        0.3676606594        0.8995673407
 O       -12.0461399120        1.4968664900        0.5989479641
 C       -13.8990377472        0.1119932778        1.2681752561
 C       -13.9274880967       -0.0807683153        2.8854769461
 O       -13.3323566782       -1.0097359023        3.3755815716
 C       -14.5010659506        1.0061096206        3.8182322739
 C       -13.6173021696        1.1895657660        5.0394458858
 C       -12.2741840071        1.8736266928        4.6410842014
 O       -12.1119523387        2.0899993467        3.4623264171
 C       -11.1651815927        2.2957491924        5.6176451545
 C       -10.4144409937        3.6997937889        5.1315841176
 O        -9.8434983700        3.8523904397        4.0770226139
 C       -10.2061407571        4.8252022468        6.1230472160
 C       -11.5845649776        2.3235643352        7.0308883770
 C        -9.9926654510        1.2519258363        5.5405995028
 C       -14.7839389081        1.3462893265        0.8604115697
 C       -14.4933035647       -1.2257138730        0.6451271663
 C        -7.3837987030       -2.2471151247        0.4997743698
 C        -6.7831317914       -1.4086524074        2.7387201861
 C        -6.6196243099        5.3957529419       -0.5988395076
 C        -8.1889312018        5.3728293225        1.3127322414
 C       -10.8749393792        9.1637302725       -1.5018461870
 C       -12.3714635861        7.2225825973       -2.1912915070
 C        -8.1971322999        7.0182013234       -7.9458458247
 C        -6.2218605640        6.3067487819       -6.5130268180
 H        -4.5436273471        9.6237525519       -8.0642521328
 H        -4.7133139596        7.9483732339       -8.5523457895
 H        -4.4635102293        8.3300641173       -6.8980233407
 H        -9.8467193345        8.3976364477       -6.1800529372
 H        -8.6455432474        9.7672265277       -6.1204057952
 H       -10.1337174852       10.2583323743       -4.3685167625
 H        -8.9967228585        9.4126674001       -3.4582309296
 H       -10.0758277910        5.6882194903       -3.8540241805
 H       -11.0929052619        5.0787529030       -2.5572007167
 H        -7.9164795602        4.8423817784       -2.6061941205
 H        -9.1407015947        3.4289942293       -2.7811519546
 H        -5.1997326576        3.1050646219        1.0774752908
 H        -5.6135694369        2.5227753831       -0.4838165310
 H        -5.9427577591        1.0948042100        2.2843726243
 H        -4.8815624861        0.7438876602        1.0051505292
 H        -9.5240397685       -0.9809745597       -0.3720010154
 H       -10.0099060988        0.6081688572        0.0147080274
 H       -11.3766147013       -1.0779331836        2.0404380870
 H       -11.7814722522       -1.6391295523        0.5387162658
 H       -15.5347880882        0.8004854226        4.1352350641
 H       -14.5856001162        1.8674682327        3.2042823895
 H       -13.3623933547        0.1792746071        5.4454394826
 H       -14.0475661592        1.7784857459        5.8042915666
 H       -11.1489965191        5.2639047107        6.4597060420
 H        -9.7460324588        5.6059090389        5.5653271698
 H        -9.7489806768        4.3749402347        7.0028075893
 H       -11.9625697225        1.3353560696        7.3211130290
 H       -12.2614849647        3.1492118711        7.3110293000
 H       -10.7634133206        2.4567605935        7.7159662193
 H        -9.0818446939        1.6538757270        6.0184238604
 H        -9.7396827231        0.9577518958        4.5406151449
 H       -10.1577033651        0.3492058496        6.1373494248
 H       -15.8151648911        1.1713936200        1.1324732900
 H       -14.7765919374        1.5868072888       -0.2134936153
 H       -14.4162652353        2.2183683135        1.3987066871
 H       -15.3840585737       -1.4412328234        1.2321237651
 H       -13.7294719193       -2.0727546438        0.6878505904
 H       -14.7552580043       -1.0052910341       -0.3461833990
 H        -6.3622290785       -2.4903129556        0.3134663172
 H        -7.6793419068       -2.1578509619       -0.5304914302
 H        -7.8194696215       -3.1146859241        0.9608493778
 H        -7.0976489743       -0.7150696001        3.4914548978
 H        -5.7309618686       -1.3430833897        2.8122688966
 H        -7.2165070569       -2.4197646356        2.9271716982
 H        -5.9222497495        5.6110896573        0.1611671617
 H        -7.1460217497        6.2620336997       -0.9350258833
 H        -6.0492783394        4.9724483998       -1.4405128986
 H        -8.7886622608        6.2009126692        0.9390338722
 H        -7.3046739913        5.7217929148        1.8259780342
 H        -8.7203090980        4.7613471972        2.0483841732
 H        -9.8904880198        9.5757462476       -1.6090244647
 H       -11.0370149662        8.9511976163       -0.4951699577
 H       -11.6271958171        9.8317403349       -1.8677235462
 H       -13.2072452071        7.8512536163       -2.0961425066
 H       -12.3376419525        6.5515550444       -1.3117550118
 H       -12.6039386272        6.5847205206       -3.0330640587
 H        -8.8271676581        7.8573684802       -8.3063317079
 H        -8.9365245664        6.3229095450       -7.5558710142
 H        -7.6399824914        6.6355267452       -8.8033168259
 H        -6.7415621313        5.3530717674       -6.2993491386
 H        -5.5656736389        6.5384689829       -5.7000729662
 H        -5.5527484686        6.0513784816       -7.3680149050
 Na      -10.3705152621        2.5274951976        1.9901822236
