117

 C        -5.0353952981        8.8983355482       -7.1604090451
 C        -6.5895983376        9.0063056802       -7.1214686487
 O        -7.2238695587       10.0694573431       -7.1802959983
 C        -7.4077984821        7.6443677774       -6.8508164427
 C        -8.0798487650        7.8839955419       -5.3440488072
 O        -7.7546398608        7.2181350962       -4.3768844256
 C        -9.0949112894        9.0286019043       -5.2074004471
 C        -9.7460006910        9.1895110452       -3.7848494370
 C       -10.9334226119        8.2503626654       -3.6036775369
 O       -11.4106434858        7.6600709308       -4.5746321450
 C       -11.3197229183        7.9014978650       -2.0720313465
 C       -10.2260164663        6.8463843978       -1.7529223078
 O        -9.1785692817        7.2175952095       -1.2672603305
 C       -10.3383179255        5.4025409618       -2.3945551266
 C        -8.9379170319        4.7870720866       -2.2575025141
 C        -8.7906658822        4.3720777558       -0.7873592358
 O        -9.7642968816        3.9350974296       -0.1908135642
 C        -7.3649196871        4.4388243675       -0.0678278048
 C        -6.9933134324        3.0969251562        0.6202315519
 O        -7.8193466209        2.5100247454        1.2804344148
 C        -5.6214871970        2.4465677095        0.3754076041
 C        -5.5383877625        0.9699862108        0.8725260392
 C        -6.7304105819        0.0762534174        0.4781982834
 O        -7.0954425728       -0.0011796862       -0.6787019150
 C        -7.5054639115       -0.8933259367        1.5419535424
 C        -9.0570301846       -0.4120605441        1.4227903483
 O        -9.4096860071        0.2956694578        2.3436021211
 C        -9.9612836543       -0.7686217925        0.2239875756
 C       -11.3713450767       -1.1576479085        0.7529276706
 C       -12.2342117757        0.0610837851        0.8851925063
 O       -11.7689673808        1.1650910447        0.7063955188
 C       -13.7497100634       -0.1257104811        1.2999396240
 C       -13.7289016011       -0.2767209067        2.9050511247
 O       -13.2262348368       -1.2806927130        3.3786600646
 C       -14.5042788337        0.8082820181        3.7540662265
 C       -13.6203682840        1.2298097152        4.9125457433
 C       -12.4646316617        2.0714421297        4.3537273458
 O       -12.5204670523        2.5720608123        3.2399461430
 C       -11.2955921094        2.3398774079        5.3388373422
 C       -10.6448517785        3.6586891503        4.9860817135
 O        -9.9399972541        3.8164583964        4.0018339474
 C       -10.5533899577        4.8428258637        5.9614701372
 C       -11.6915786200        2.3918668930        6.8637534187
 C       -10.2426457898        1.2028424377        5.1452321747
 C       -14.4765023919        1.1508893912        0.7869922390
 C       -14.2690390147       -1.3985402433        0.6488610593
 C        -7.4090898602       -2.2778617956        0.9365768653
 C        -7.0832345290       -0.6736408640        2.9569496240
 C        -6.3300326065        4.9207455541       -1.0565214093
 C        -7.5696759978        5.2625561004        1.3283165519
 C       -11.2681033445        9.2196225476       -1.2440192077
 C       -12.7210050468        7.2975749388       -1.9756145881
 C        -8.4400972407        7.5188786368       -8.0133702292
 C        -6.5183690629        6.4509038357       -6.9243132369
 H        -4.4775733189        9.6486231933       -7.6704354959
 H        -4.7675313420        8.0624788828       -7.7665158828
 H        -4.6957511967        8.6645950120       -6.1609966116
 H        -9.7632382378        9.0307858202       -6.0592341246
 H        -8.4226596369        9.8792861716       -5.3238084400
 H       -10.0375976157       10.2123150613       -3.6231245266
 H        -9.0147760423        8.9504878995       -3.0119878906
 H       -10.7274098784        5.5051735282       -3.4360816235
 H       -11.0097204288        4.7404438724       -1.8198720764
 H        -8.1500659197        5.4107866300       -2.6059154712
 H        -8.9172800544        3.7683968528       -2.8518028114
 H        -4.9253070785        3.0800094410        0.8822393609
 H        -5.3127166881        2.4725256867       -0.6395076720
 H        -5.4043589975        0.8613950071        1.9324613100
 H        -4.6782569993        0.3749575747        0.4106247622
 H        -9.5283403294       -1.5943370619       -0.3435284871
 H        -9.9379159865        0.1303863996       -0.4227864894
 H       -11.3085648985       -1.7130291742        1.6632580728
 H       -11.7872688327       -1.8606359813        0.0872833632
 H       -15.3950551106        0.3955577153        4.1029769917
 H       -14.7837462345        1.6715706728        3.1283925871
 H       -13.1617787834        0.3814619554        5.4324220637
 H       -14.1703340089        1.8306132138        5.5999186957
 H       -11.3184079364        4.9288282850        6.7465023261
 H       -10.4825089944        5.7083280082        5.2964329439
 H        -9.5883359567        4.7070196866        6.4222875804
 H       -11.9139524288        1.4671545171        7.3474310415
 H       -12.5430722881        3.0368719217        7.0977746654
 H       -10.8505237935        2.8659116291        7.4101054831
 H        -9.7116587228        1.1538694367        6.0992795059
 H        -9.5289282500        1.4532016948        4.3347668848
 H       -10.5846735199        0.2033544948        4.8807606731
 H       -15.5610863776        1.1529815606        0.7680752663
 H       -14.1233332182        1.3288216447       -0.2073457270
 H       -14.2523677121        2.0298390138        1.3601365144
 H       -15.2463311583       -1.6952704600        1.0760613976
 H       -13.6305578702       -2.2205199707        0.7879942636
 H       -14.3465700185       -1.1550199815       -0.4681678747
 H        -6.4527922071       -2.8143672734        1.0738287501
 H        -7.5825246891       -2.1854312931       -0.1236868952
 H        -8.1497894552       -2.9705396637        1.2506032588
 H        -7.3062452802        0.4038227491        3.2353836651
 H        -6.0847914411       -1.0702625971        3.1357495372
 H        -7.6846262575       -1.2730426285        3.5922287448
 H        -5.3105561657        4.6661265171       -0.7496089273
 H        -6.4767403763        5.9735541341       -1.3659972736
 H        -6.5306387850        4.3413829739       -1.9266001353
 H        -7.4928475278        6.2966753876        1.0943358005
 H        -6.7981002301        4.9685509046        2.0285128446
 H        -8.5666464190        5.0714486844        1.6708589609
 H       -10.2826301870        9.5661504503       -1.1826690944
 H       -11.6753605914        9.0139166666       -0.2801143339
 H       -11.7732024783        9.9657197185       -1.8048743758
 H       -13.5658969513        7.9890417669       -2.0151798000
 H       -12.7260480546        6.8415137011       -0.9901363397
 H       -12.8794546829        6.4514877420       -2.6087600486
 H        -9.1795727387        8.2981464812       -8.0471396554
 H        -8.9166859673        6.5297120443       -7.9555196642
 H        -7.9947525524        7.5803126477       -9.0204514167
 H        -7.0016695315        5.4988716725       -6.9695907597
 H        -5.8517019557        6.3904075681       -6.0732147713
 H        -5.9147357231        6.4102126447       -7.7960082493
 Na      -10.3744233424        2.7117828920        1.8517570277
