117

 C        -4.9310497889        8.2926736551       -8.1174241974
 C        -6.4277123690        8.3877552921       -7.7225524352
 O        -7.1372634420        9.2942965563       -8.0113194774
 C        -7.0816532217        7.1020654947       -6.9434570464
 C        -7.9074471737        7.6110376457       -5.6590708835
 O        -7.8389881023        7.1041647657       -4.5537593314
 C        -8.9348029097        8.7378039166       -5.9456348496
 C        -9.5117460508        9.1849022598       -4.6083478336
 C       -10.6154279497        8.1879943537       -4.1366959875
 O       -11.2441249862        7.4887217376       -4.9277913704
 C       -10.8929597686        8.0272679526       -2.6314099103
 C        -9.9851843525        6.8550346672       -1.9967440446
 O        -9.2925993717        6.9803840381       -1.0080183972
 C       -10.0912425760        5.5202964859       -2.6872207328
 C        -8.9489871633        4.5870750174       -2.1654730509
 C        -9.0785730602        4.2321021243       -0.6479757676
 O       -10.0560133276        3.6484935447       -0.1840155319
 C        -7.9245929878        4.6075047298        0.4293063666
 C        -7.3998170657        3.1982698054        0.9813128908
 O        -8.0738365181        2.5464222786        1.7404945220
 C        -5.9902233440        2.7175756144        0.7240528878
 C        -5.8564384237        1.2228226913        1.0620397033
 C        -6.9200440195        0.3324936290        0.3469539369
 O        -7.1772486528        0.5235436206       -0.8308355298
 C        -7.5613050990       -0.9248160892        1.0779527916
 C        -8.9801267166       -0.3325698866        1.3795248743
 O        -9.1168680379        0.0946932442        2.5096993394
 C       -10.2411356783       -0.3201960369        0.4532711499
 C       -11.5339912808       -0.5355331965        1.1227888291
 C       -12.5722674908        0.6156007388        1.0406025533
 O       -12.2665231781        1.7735655012        0.9621212324
 C       -14.0846057670        0.3396604105        1.4249984891
 C       -13.9548710875        0.2068151279        3.0603684595
 O       -13.3589777258       -0.7505451616        3.5201887258
 C       -14.3766743124        1.3908751675        3.9349785426
 C       -13.5528924964        1.5061834734        5.1777985962
 C       -12.0480979205        1.6717843330        4.8027471681
 O       -11.6777275206        1.4403743137        3.6670874732
 C       -11.0924070510        2.3075556957        5.7818489706
 C       -10.5060985126        3.6437896423        5.1802964138
 O       -10.1729841367        3.8101791905        4.0241529501
 C       -10.0510445974        4.6597535949        6.2317823097
 C       -11.7398610028        2.5298431552        7.2387785222
 C        -9.8615331748        1.3425847667        5.7786512694
 C       -14.9170252497        1.5508359302        0.9801518250
 C       -14.6222587214       -0.9872297704        0.8397682649
 C        -7.6158203526       -2.0164623075       -0.0186647852
 C        -6.7987678454       -1.3415858132        2.3512875840
 C        -6.8573916464        5.5852238698       -0.2028713330
 C        -8.6477935287        5.2498818269        1.6435261929
 C       -10.6621519182        9.2793324848       -1.7616663622
 C       -12.3059226924        7.4415635825       -2.4433088471
 C        -8.0858467096        6.4824587715       -7.9662244978
 C        -5.9495979775        6.1519191152       -6.4834217766
 H        -4.5425392321        8.9311269229       -8.8757746607
 H        -4.7166902845        7.2443576029       -8.3780138020
 H        -4.1919336072        8.4927175474       -7.3379700100
 H        -9.7203427976        8.2948241692       -6.5784719610
 H        -8.4052663282        9.5218390491       -6.3816815894
 H        -9.9199649617       10.1471056158       -4.7576690199
 H        -8.7763169737        9.3373383748       -3.8535238434
 H       -10.0214211806        5.6740651691       -3.7555314958
 H       -11.0675753389        5.1428663156       -2.5515987817
 H        -8.0580994373        5.1188148036       -2.3323116562
 H        -8.7859727363        3.6355640954       -2.7162673926
 H        -5.1648634839        3.3314911528        1.1721851417
 H        -5.9850392263        2.7087784189       -0.3796164186
 H        -5.8497034808        1.1072206732        2.1304151963
 H        -4.8458194460        0.8266188893        0.6600110244
 H        -9.9694056815       -1.0374459656       -0.3385331860
 H       -10.2391846154        0.7359231450       -0.0423718465
 H       -11.3563243387       -0.6270060082        2.2220612316
 H       -11.8473461006       -1.5186741748        0.7147181437
 H       -15.4351028033        1.3412367341        4.2678205904
 H       -14.2659467051        2.3351723700        3.2682680891
 H       -13.6604592047        0.6888026847        5.9260615961
 H       -13.7770937616        2.4446090694        5.7633715843
 H       -10.9385760046        5.1759267546        6.7064703666
 H        -9.5054396388        5.4142100550        5.6875665779
 H        -9.4264281709        4.1499904291        6.9643644948
 H       -12.4892742847        1.8387023891        7.4813905505
 H       -12.3043184990        3.4498902135        7.2262921866
 H       -10.9778103409        2.5681355604        8.0350113749
 H        -8.9699992059        1.7184427089        6.2821088527
 H        -9.4432946912        1.1916166082        4.7820900996
 H       -10.1416018860        0.3577433064        6.1515993216
 H       -15.9243808117        1.3316051135        1.3363835542
 H       -14.9162834643        1.7770493334       -0.0647372365
 H       -14.4924676485        2.4157369419        1.4623407245
 H       -15.7083996175       -0.9003387057        0.6618873372
 H       -14.3026654859       -1.7574358118        1.6195507494
 H       -14.1165473935       -1.1313692305       -0.1374817530
 H        -6.6508129084       -2.2174436981       -0.5309167925
 H        -8.3619687749       -1.7639477297       -0.7445260541
 H        -7.9448313034       -2.9572685741        0.3221197858
 H        -7.2260300986       -0.8493034004        3.2823324215
 H        -5.7038350018       -1.1879686798        2.2088451752
 H        -6.8975978838       -2.3908862786        2.5084871059
 H        -6.2117197863        5.9948761422        0.5595047058
 H        -7.3542811970        6.5112018589       -0.5327696226
 H        -6.2283678816        5.1563742521       -0.9611239625
 H        -7.8965292314        5.7442525605        2.2190039001
 H        -9.0538955415        4.5179652046        2.3193925203
 H        -9.4446646422        5.9339776556        1.3649167848
 H        -9.7447014246        9.7312147889       -2.0107272119
 H       -10.5420294759        8.8861660608       -0.7802018783
 H       -11.4928568524        9.9660823064       -1.6406758709
 H       -13.0032967663        8.1921058764       -2.8111432964
 H       -12.5826440674        7.3563238271       -1.3992325453
 H       -12.5952771487        6.5693844107       -2.9661186956
 H        -8.5387676406        7.3031000025       -8.5018717375
 H        -8.8696761664        5.8408617906       -7.5402175798
 H        -7.5296323589        5.7771017316       -8.6091526931
 H        -6.4073266273        5.1878341990       -6.2797013346
 H        -5.4488558583        6.4359398905       -5.5592791062
 H        -5.2338971812        6.0210970705       -7.2715826590
 Na      -10.3883880114        2.5243110077        2.1236872760
