117

 C        -4.8396964842        8.3473238289       -8.0441575637
 C        -6.3495780723        8.5582392829       -7.6782391677
 O        -7.1376068441        9.4296394270       -8.0528884658
 C        -7.0858486519        7.3153695575       -6.9124999735
 C        -7.9620371129        7.7611315778       -5.7034224335
 O        -7.7711407340        7.2349968023       -4.6195983143
 C        -9.0960862912        8.7950944254       -5.8224639858
 C        -9.6422813510        9.2496890328       -4.4693377024
 C       -10.7535848391        8.3639390693       -4.0686487972
 O       -11.5653816634        7.9805507355       -4.8609621827
 C       -10.9463509650        7.9589719485       -2.5542694672
 C       -10.0206523517        6.6916665577       -2.0387386486
 O        -9.2231997715        6.8983071967       -1.1462992000
 C       -10.0839959493        5.2766878819       -2.6672742270
 C        -8.8715474793        4.3651679395       -2.1813226562
 C        -9.0741202794        4.1060050415       -0.6644453116
 O       -10.1250509584        3.7076345659       -0.2239660184
 C        -7.9047470756        4.5101712998        0.4020517606
 C        -7.3876108480        3.1491524732        1.0216372653
 O        -8.0815702819        2.4364945364        1.7610337402
 C        -6.0141216467        2.6149274204        0.6194892949
 C        -5.8162606042        1.2063692694        1.1415126355
 C        -6.8350543416        0.3316183638        0.2975052933
 O        -7.1103870949        0.6079236451       -0.8416078253
 C        -7.5234813941       -0.8443058202        1.1009607507
 C        -9.0038292090       -0.2725693689        1.5682849326
 O        -9.2327067315       -0.0337724119        2.7231838761
 C       -10.0847636554       -0.2290685760        0.4315583227
 C       -11.5133818057       -0.6661630683        1.0451965376
 C       -12.4598075053        0.5189540889        0.9298211442
 O       -12.1385382328        1.6476627144        0.5174599756
 C       -13.9137184629        0.3227056805        1.4568664590
 C       -13.9230179704        0.1229175112        3.0410592446
 O       -13.4457067418       -0.8832110601        3.5016094204
 C       -14.5067244764        1.2667046015        3.9271065922
 C       -13.5598636821        1.5254366369        5.1194281914
 C       -12.0884168737        1.7798347748        4.6877627758
 O       -11.7585010925        1.5127005053        3.5501703472
 C       -11.0382121983        2.2471760687        5.7880880736
 C       -10.3039569209        3.6190871040        5.2353974739
 O       -10.1426056625        3.8839045967        4.0594273773
 C       -10.1635053823        4.8040907557        6.1322339653
 C       -11.6578103610        2.4940249168        7.2124795025
 C        -9.9871690386        1.0624137022        5.9911353955
 C       -14.8349622206        1.4648983755        1.0699121649
 C       -14.5105817123       -0.9735007314        0.8972143603
 C        -7.5787157696       -2.0662901004        0.1835962810
 C        -6.7171922386       -1.3590168148        2.3965708192
 C        -6.6751974267        5.3036370955       -0.1016486767
 C        -8.6235877465        5.3788772819        1.4639226784
 C       -10.6226883223        9.1470271916       -1.6820072321
 C       -12.5092257574        7.5955357757       -2.4112619202
 C        -8.0479152481        6.6375898148       -7.9504578957
 C        -6.1177046154        6.2107358632       -6.3320480373
 H        -4.3554981837        9.2643388845       -8.4046165254
 H        -4.6124979458        7.5752993996       -8.7558928015
 H        -4.2120093272        8.1579943998       -7.2136192842
 H        -9.8794097255        8.2156626867       -6.2842748288
 H        -8.6548947004        9.6587395096       -6.4168835523
 H       -10.0027606709       10.3199581347       -4.5152287392
 H        -8.8971523339        9.3088367102       -3.6442678083
 H       -10.1119336405        5.3731164912       -3.7795548305
 H       -11.0322005428        4.6911757199       -2.4408996193
 H        -7.8093909640        4.8362058707       -2.3392025268
 H        -8.8946018798        3.4296464837       -2.7576631555
 H        -5.4067600116        3.3258753918        1.0856516652
 H        -5.8648067258        2.5676683686       -0.4551939927
 H        -5.9127437836        1.1592092991        2.2592451634
 H        -4.8957335989        0.7276404780        0.9100886301
 H        -9.6879102871       -0.9029955849       -0.3421133141
 H       -10.0304975297        0.6961683281       -0.0332239485
 H       -11.4821600284       -1.0966995223        2.0219347790
 H       -11.8451743030       -1.4347675584        0.4082693245
 H       -15.4328691022        0.9722495283        4.3972790788
 H       -14.7211576232        2.1167849601        3.3971006983
 H       -13.3383992567        0.6922244900        5.7687790824
 H       -13.9364928540        2.2501540910        5.7769815030
 H       -11.1544157509        5.1169698355        6.3832131378
 H        -9.8105656779        5.6373907643        5.5128002660
 H        -9.6140353201        4.5282111328        7.0418711612
 H       -11.8269207296        1.5015751777        7.7459406088
 H       -12.6771520822        2.9663300547        7.2606633472
 H       -10.9584750624        3.0725837747        7.8247477383
 H        -9.3314996225        1.1360376528        6.8498503433
 H        -9.2520805235        1.1017995872        5.2077877311
 H       -10.4380603492        0.0753752916        5.9990971960
 H       -15.7919699601        1.3601803714        1.5676829255
 H       -15.0685864550        1.3551085140       -0.0221502678
 H       -14.3132978565        2.4289932166        1.1049202823
 H       -15.5171235578       -0.7112452064        0.7466038585
 H       -14.3599573791       -1.7358722582        1.6272360848
 H       -14.1097855219       -1.1954432832       -0.0415405832
 H        -6.6696120686       -2.6275370063        0.2998699016
 H        -7.6979688926       -1.9587488365       -0.9151843050
 H        -8.3640996921       -2.8018914955        0.5022020815
 H        -6.6971156167       -0.6146352344        3.1479647689
 H        -5.6971261268       -1.6657701112        2.1986758516
 H        -7.3500050222       -2.2115979124        2.8195633808
 H        -6.0566311447        5.5321235257        0.7354413831
 H        -7.0153655604        6.2512282117       -0.3962692109
 H        -6.1049036646        4.7817244715       -0.8751979253
 H        -8.0698785883        6.3438189253        1.6393224161
 H        -8.7221918549        4.8830567718        2.4487602704
 H        -9.6703462686        5.5199751560        1.1321602385
 H        -9.5698554332        9.4362930017       -1.7900759146
 H       -10.7760897382        8.9232434022       -0.6475360259
 H       -11.4128671304        9.8443831692       -1.8716834118
 H       -13.2798187697        8.2366391728       -2.7838710391
 H       -12.6848923660        7.4898532383       -1.3341751065
 H       -12.7723272648        6.6081139160       -2.8185560128
 H        -8.7668861503        7.3764242452       -8.3483785003
 H        -8.6755824191        5.8784397701       -7.4981942460
 H        -7.4506441918        6.1185863118       -8.6782639851
 H        -6.5387987646        5.5947498223       -5.5133986925
 H        -5.2452049528        6.7100567372       -5.8745884954
 H        -5.6638005482        5.6492630537       -7.1829900648
 Na      -10.3682455113        2.6654259304        1.8537062814
