117

 C        -4.7511392502        7.5035224859       -8.2208162757
 C        -6.2197148999        7.5480978136       -8.0411829783
 O        -6.8723826571        8.4103529177       -8.5424914626
 C        -6.9813912285        6.4996238220       -7.1435075912
 C        -7.5338264210        7.1525162161       -5.8163277921
 O        -6.9974244916        6.9163797238       -4.7562549537
 C        -8.6498368261        8.1993251870       -5.9875090221
 C        -9.2251526682        8.5915890475       -4.6589965516
 C       -10.3792528026        7.5759766758       -4.3826555074
 O       -10.8006546995        6.7942346385       -5.2138905173
 C       -11.0480159048        7.7222015750       -2.9105636951
 C       -10.1435943949        6.9335462892       -1.9543952798
 O        -9.3691019428        7.3896494792       -1.1447703913
 C       -10.0837871074        5.4447287448       -2.1685757012
 C        -8.8231357440        4.8036722004       -1.5287971264
 C        -8.9326065230        4.6720253420        0.0817422607
 O        -9.9228519158        4.1722893236        0.6024560217
 C        -7.6158581338        4.9239352377        0.8801665389
 C        -7.1738034025        3.4691454706        1.2486108000
 O        -7.6210174970        2.9309444781        2.2368872100
 C        -5.9415462297        2.8533522057        0.4808615031
 C        -5.9891076360        1.3039789437        0.6013660014
 C        -7.1370936346        0.6090803998       -0.1964326749
 O        -7.6930336891        1.1481050172       -1.1344073385
 C        -7.8616868331       -0.6994573883        0.4118647986
 C        -9.1423659236       -0.0535296461        1.0172492463
 O        -9.0115830973        0.4895346260        2.0884286695
 C       -10.4953538170        0.1400883066        0.2285564938
 C       -11.6712888113       -0.2008745133        1.2640834416
 C       -12.7863426302        0.8605103671        1.4336385755
 O       -12.4660482888        2.0361570580        1.6264118983
 C       -14.2296868309        0.4188898914        1.5748214915
 C       -14.3895845535        0.4760082795        3.2035343539
 O       -14.4863566337       -0.5783932162        3.7980071744
 C       -14.2973697824        1.8855597195        3.8988567464
 C       -13.5024660281        1.9645359851        5.2120386186
 C       -12.0048915581        1.7468235195        4.9123276385
 O       -11.6885105992        1.0384338515        4.0010541722
 C       -10.8151141611        2.3022540082        5.9195685789
 C       -10.4923495010        3.7495130124        5.4496905343
 O       -10.3178148170        4.0148332622        4.2738230159
 C       -10.6847891682        4.9029464446        6.4134258755
 C       -11.3441629999        2.1798068402        7.4190171473
 C        -9.5303318002        1.5555822657        5.6694952904
 C       -15.1174519633        1.4988091319        0.8937170122
 C       -14.6237825597       -1.0125616019        1.1137880360
 C        -8.2252761244       -1.6827229335       -0.7626675078
 C        -7.3093710787       -1.4334791383        1.7138244578
 C        -6.5777236077        5.7150750801        0.0448422881
 C        -7.8731782094        5.7987457328        2.0626620337
 C       -11.1706840068        9.0892020580       -2.4305889970
 C       -12.4369896890        7.0474572508       -2.8285063586
 C        -8.2196197162        6.0813185947       -8.0550330254
 C        -6.2059804338        5.2573761279       -6.7606536501
 H        -4.4219927725        8.4350441410       -8.5861101326
 H        -4.2929176481        6.7960524257       -8.8761402004
 H        -4.1693927079        7.2309241681       -7.3421398451
 H        -9.3849019421        7.8268435346       -6.6709732546
 H        -8.1940063666        9.0092341661       -6.5780170989
 H        -9.5317154451        9.6147913870       -4.7109171928
 H        -8.5075449448        8.4657311231       -3.9157380490
 H       -10.0625131388        5.1790988485       -3.1892704795
 H       -10.9763318949        4.9914160452       -1.7520631396
 H        -8.0378658718        5.3241336225       -1.8910311396
 H        -8.7376466354        3.7632993136       -1.8128257963
 H        -4.8817504346        3.2280371774        0.6772101789
 H        -6.1164597496        3.2315597319       -0.5452223740
 H        -6.1599263288        1.0617115866        1.6951648048
 H        -5.0475307609        0.8876193016        0.3543579518
 H       -10.5459405497       -0.5066804316       -0.7175096631
 H       -10.5458692402        1.2442604422       -0.0551736031
 H       -11.2659523346       -0.4418124098        2.3135894804
 H       -12.0310570274       -1.1959864218        0.7929587324
 H       -15.3673406504        2.2365682012        4.1272292010
 H       -13.8651019085        2.6085472894        3.1521127382
 H       -13.8214464290        1.1299354554        5.8460576698
 H       -13.6845403430        2.9332506950        5.8441182437
 H       -11.7118030642        4.8374576483        6.7233348448
 H       -10.4058671299        5.7815604780        5.8140655635
 H        -9.9404401391        4.8601715971        7.2427659958
 H       -11.3426821705        1.0875862913        7.5141660277
 H       -12.3476124263        2.6023800483        7.4710949601
 H       -10.7241164233        2.7271080772        8.1575260826
 H        -8.6822399531        2.0709638317        6.0672005338
 H        -9.3281589952        1.2395722855        4.6430828216
 H        -9.4710312177        0.6192298051        6.1879799490
 H       -16.1425514251        1.2339870497        1.1761672929
 H       -15.0081715189        1.4107603043       -0.1887492847
 H       -14.8485619722        2.4795630686        1.2915949582
 H       -15.5444578385       -1.2868175788        1.6711549715
 H       -13.8408856434       -1.7853683398        1.4076728115
 H       -14.7833501027       -1.0519301057       -0.0025772844
 H        -7.5506549397       -2.5261759302       -0.9030678850
 H        -8.2039199696       -1.1649448118       -1.7019894899
 H        -9.2254698766       -2.0931215350       -0.5138728802
 H        -6.9547502767       -0.7747452044        2.5052620332
 H        -6.3827378899       -1.9644566560        1.4077286251
 H        -8.0876575263       -2.0671467487        2.0526663331
 H        -5.6711367693        6.0021231749        0.5882841103
 H        -6.9898841249        6.6455665993       -0.3310023666
 H        -6.2606727939        5.1628265338       -0.7758864793
 H        -7.1349148632        5.7124569936        2.8881115454
 H        -8.8873434648        5.6141049972        2.4333861062
 H        -7.8907661105        6.8609647199        1.8111653930
 H       -10.2802112115        9.5095200657       -2.1040841172
 H       -11.8732083328        9.1654626699       -1.6296278434
 H       -11.5014197910        9.6598041671       -3.2562239411
 H       -13.2763170218        7.7503302978       -2.9871849849
 H       -12.5639628891        6.5511674337       -1.9125011585
 H       -12.5729224483        6.2925774630       -3.5957072673
 H        -8.9319925998        6.8963286552       -8.1357118313
 H        -8.7923267961        5.2608908049       -7.6121901696
 H        -7.8434021006        5.8711755021       -9.0558101390
 H        -6.4574125499        4.9723960093       -5.7333969251
 H        -5.1100158490        5.5063425580       -6.7621833895
 H        -6.4347642521        4.5342294241       -7.5466836709
 Na      -10.0827398514        2.6101302436        2.5886592863
