117

 C        -4.6783324775        7.3679320469       -8.1515103587
 C        -6.1992255584        7.3914917729       -8.0582297832
 O        -6.8162815817        8.3160605437       -8.5559590740
 C        -7.0099502183        6.3127056359       -7.2215374831
 C        -7.4652110374        6.9973576112       -5.8816629265
 O        -6.8231713935        6.8860885661       -4.8571938816
 C        -8.5463772009        8.1320764868       -5.9846881572
 C        -9.2319685948        8.4695419349       -4.6108238191
 C       -10.4297637758        7.5590241291       -4.3063497860
 O       -10.8306918259        6.6483697423       -5.0287514780
 C       -11.1061709260        7.6094681993       -2.9096775901
 C       -10.1476526892        6.8842183984       -1.9256035660
 O        -9.2894945771        7.5062171479       -1.3080348475
 C       -10.0633175408        5.4249390351       -2.0992858053
 C        -8.8502995639        4.6539352704       -1.5370905968
 C        -8.9307751889        4.6437960190       -0.0178399040
 O        -9.9029920628        4.2831254639        0.6253691680
 C        -7.5884615344        4.9315420461        0.8644475753
 C        -7.1586075398        3.5153294360        1.3037984945
 O        -7.8195281121        2.8995852337        2.1449223564
 C        -6.0369879462        2.8096565686        0.5117375919
 C        -6.0072117120        1.2718371411        0.7145643450
 C        -7.1684794437        0.6845288834       -0.1386706602
 O        -7.5034434991        1.1544234081       -1.2119615736
 C        -8.0552972514       -0.6283472546        0.3329869245
 C        -9.2913744966        0.0848413723        1.0419622962
 O        -9.2205323348        0.5203122119        2.2010156848
 C       -10.5351249149        0.3608148111        0.2318481941
 C       -11.7510116409       -0.2691663789        0.8987303174
 C       -12.5838139018        0.8339807621        1.3433907544
 O       -12.1507192015        1.9976706351        1.3312745544
 C       -14.0764833313        0.5056726167        1.6828802331
 C       -14.2204854148        0.5910258956        3.3251436181
 O       -14.5208404065       -0.3694750997        3.9563729544
 C       -14.1537040478        2.0672787439        3.9189097892
 C       -13.3965516496        2.0931300061        5.2168511424
 C       -11.9452048283        1.6966837753        5.0400803515
 O       -11.6242025038        0.8679096802        4.2025274595
 C       -10.9118673324        2.3108733513        6.0513062198
 C       -10.6756226191        3.8307858893        5.5617397261
 O       -10.1774251634        4.1129366615        4.4852312087
 C       -11.0721176409        4.9459234192        6.4603189169
 C       -11.2024674690        2.2803207106        7.5561454802
 C        -9.6258282803        1.5593329940        5.8094007417
 C       -15.0664928448        1.6212033057        1.1783630574
 C       -14.5356425302       -0.8217980798        1.1342987511
 C        -8.4603066898       -1.4155904156       -0.8905618072
 C        -7.1680722366       -1.5751486425        1.2414200337
 C        -6.5740353357        5.7926728661        0.1187684090
 C        -8.0377999590        5.6754290325        2.1917857805
 C       -11.3034084854        9.1353708877       -2.4487919774
 C       -12.4764671727        6.8736505270       -2.9278164068
 C        -8.2037061109        5.8874206080       -8.0485201170
 C        -6.2316810083        5.0258827835       -6.9246105411
 H        -4.1670620829        8.3663442494       -8.2600029315
 H        -4.2295527772        6.7920904933       -9.0014763759
 H        -4.1647032954        6.8009058044       -7.3541929225
 H        -9.1489050169        7.9543121555       -6.8797227168
 H        -7.9807535514        9.0086418745       -6.3576883549
 H        -9.4741540279        9.5475905303       -4.6635596326
 H        -8.4807598647        8.3079097554       -3.7556151792
 H       -10.1446453593        5.1533488937       -3.1873768058
 H       -10.8977122900        4.9442388344       -1.5655520943
 H        -7.8075158692        5.0606011180       -1.8693415066
 H        -8.9770207333        3.5806436906       -1.7826954785
 H        -5.1262342396        3.1572305234        0.9576898321
 H        -5.8606322934        3.1727247561       -0.5084703846
 H        -6.0513465180        0.9459594244        1.7322424228
 H        -4.9899844314        0.9694338130        0.3569581392
 H       -10.4317075305       -0.0416520775       -0.7491004813
 H       -10.6879046400        1.4101738589        0.1234565030
 H       -11.4439567689       -0.9029356005        1.7356351579
 H       -12.2329207901       -0.8853654418        0.1956653720
 H       -15.1448101335        2.4334184828        3.9865085169
 H       -13.6349693908        2.7361210865        3.2615156297
 H       -13.8638908057        1.3885800102        5.9518190168
 H       -13.3475151471        3.0204877236        5.6692416898
 H       -12.1537947689        4.8810387141        6.6606761778
 H       -10.8463475838        5.8319753549        5.8270756327
 H       -10.4576558891        4.9023256615        7.3547312592
 H       -11.5570685789        1.3044632491        7.7974541512
 H       -11.8876927320        3.0373453853        7.8720209556
 H       -10.2644323388        2.4588013814        7.9779013783
 H        -8.8627019574        1.5930866959        6.6029056174
 H        -9.1496618194        1.8725608536        4.8821356844
 H        -9.7715674888        0.4809562403        5.6108378283
 H       -16.0731089330        1.3940350732        1.4456472189
 H       -14.9884332853        1.5889914301        0.0939633652
 H       -14.6885329455        2.5797530047        1.4838626266
 H       -15.6281000015       -0.8614632090        0.9972659872
 H       -14.2104897300       -1.5490952799        1.7929658860
 H       -14.0834272618       -1.0402152647        0.1557353350
 H        -7.5782908667       -1.7754446572       -1.3981087746
 H        -8.9487991647       -0.7395372876       -1.6053881434
 H        -8.9823440322       -2.3192662016       -0.6338111577
 H        -6.8216321954       -1.0087108658        2.0933926978
 H        -6.2930424258       -1.9368143827        0.7519974980
 H        -7.8673275847       -2.3443161404        1.6698703900
 H        -5.7241437587        6.1389124764        0.7091351711
 H        -7.0594681652        6.7307898036       -0.1810142600
 H        -6.0871069064        5.2515500556       -0.7691394556
 H        -7.3089199386        5.6631230539        2.9602843738
 H        -8.9718879083        5.2981505908        2.5384295154
 H        -8.2728481664        6.7089436930        2.0308985089
 H       -10.4978302751        9.3195273873       -1.6775320991
 H       -12.3066321047        9.3869391103       -2.0242606473
 H       -11.1784667929        9.8979781860       -3.2492549216
 H       -13.1650051816        7.4425207013       -3.5056553730
 H       -12.8896617356        6.5885544711       -1.9166173942
 H       -12.3842476005        5.9757971147       -3.5324208405
 H        -8.6151093929        6.6278346147       -8.7509309380
 H        -9.0358238302        5.6887803318       -7.3631369252
 H        -7.9240360774        4.9478917362       -8.5203204578
 H        -6.6706529946        4.6440820978       -6.0297576190
 H        -5.2359972702        5.2061938143       -6.6897846484
 H        -6.3089553379        4.3856311901       -7.7760919218
 Na      -10.1804466042        2.7138880193        2.3368531817
