117

 C        -4.8782086751        7.9542799265       -8.3078125136
 C        -6.3016468030        7.8839160734       -7.9555619011
 O        -6.9689339938        8.8004702297       -8.3392800111
 C        -6.9715547235        6.7038987968       -7.1051420899
 C        -7.7149010170        7.3145895995       -5.8804742364
 O        -7.6183766309        6.8565990858       -4.7574189231
 C        -8.7451327879        8.5301720896       -6.1068755775
 C        -9.3467574816        8.9716117526       -4.7586267826
 C       -10.2862409386        7.8189194335       -4.2717585189
 O       -10.7075494561        6.9889677686       -5.0825399146
 C       -11.0084246451        7.8569649153       -2.7454119057
 C       -10.2219328432        6.8526334710       -1.8513330232
 O        -9.4702167818        7.2403409793       -0.9613541545
 C       -10.2236684224        5.4102876899       -2.1267603742
 C        -8.9057308796        4.8046112354       -1.6982850451
 C        -8.8268281783        4.4859751826       -0.2026111241
 O        -9.7995282004        3.9185620518        0.2644809210
 C        -7.5976112263        4.8357603682        0.7299339025
 C        -7.0294092450        3.4372075370        1.2620189363
 O        -7.4888734646        2.8563522609        2.2317421252
 C        -5.8376759553        2.8006137789        0.4190475146
 C        -5.8733701816        1.2873532546        0.6385101010
 C        -7.0848684903        0.5028767888       -0.0183702872
 O        -7.5609208698        0.8352149714       -1.0922980929
 C        -7.7973930685       -0.7813733094        0.6819752111
 C        -9.0305984274       -0.1992794456        1.3481201691
 O        -8.9760862183        0.4218918484        2.3898247419
 C       -10.3655293122       -0.0903544159        0.4081041797
 C       -11.6530271558       -0.5079815361        1.2218087798
 C       -12.6644555168        0.6558248806        1.1923996511
 O       -12.4121721277        1.8481729997        0.9847774789
 C       -14.1423266395        0.3444630405        1.5660167528
 C       -14.2900598361        0.2799560611        3.1965626351
 O       -14.4952093331       -0.7292528023        3.8191383290
 C       -14.3204798075        1.6350965518        3.9413233586
 C       -13.5707808409        1.5595825038        5.2499897067
 C       -12.0621684003        1.5920568780        4.8481704462
 O       -11.7252202586        1.2944573721        3.7186007427
 C       -10.9871397980        2.3244905569        5.8520719996
 C       -10.6452069109        3.7701884440        5.3742754061
 O       -10.6333639374        4.0507851749        4.1801662091
 C       -10.1355899765        4.7810849591        6.4133754285
 C       -11.5157031239        2.3218523522        7.3448689019
 C        -9.6944380807        1.4510473506        5.8039633139
 C       -15.1102458995        1.4886182544        1.1197195112
 C       -14.6510746357       -1.0521707543        1.0594209574
 C        -8.1123793279       -1.8731379192       -0.4084711276
 C        -6.9326414281       -1.3589421368        1.8121510464
 C        -6.5026246853        5.6376264235       -0.0045538856
 C        -8.0986840542        5.6952442432        1.9534071366
 C       -10.9748097236        9.2595960253       -2.0490107692
 C       -12.4811913539        7.3760035378       -2.8919811502
 C        -8.0951918260        6.1127137028       -7.9622565702
 C        -6.0135582476        5.5522645030       -6.5881357316
 H        -4.5697491986        8.7042596553       -9.0540976155
 H        -4.3653518717        7.0318747315       -8.6221847265
 H        -4.2297678622        8.1481399731       -7.3827277974
 H        -9.4812632515        8.1837768122       -6.8157833563
 H        -8.1343901476        9.3151528001       -6.6187045258
 H        -9.9383634977        9.8987680635       -4.8427870813
 H        -8.5379729861        9.1048731763       -4.0646688011
 H       -10.2815623143        5.2714544377       -3.1845803718
 H       -11.0202854838        4.7689821142       -1.7435525336
 H        -8.0671650977        5.3017936720       -2.0710816032
 H        -8.9179171015        3.8447352507       -2.1959275552
 H        -4.8951703122        3.3466469869        0.7520358412
 H        -5.9754326188        2.9150767261       -0.6911994495
 H        -5.9056672392        1.0926574780        1.7392291628
 H        -5.0689902490        0.8155829241        0.1771612771
 H       -10.1769937318       -0.6824206941       -0.5041750384
 H       -10.3502495704        0.9794873070        0.2165686384
 H       -11.3864238609       -0.8759400539        2.2850080252
 H       -12.0381878718       -1.3350601163        0.5399201223
 H       -15.3707064453        1.9431182708        4.2006000201
 H       -13.8272154349        2.4165466653        3.3734895502
 H       -13.7523114558        0.7490180039        5.9491136136
 H       -13.7342860115        2.5164042308        5.8503132191
 H       -10.8618901342        5.0170350516        7.1305288320
 H        -9.6367058627        5.6070101890        5.8658294806
 H        -9.2029448363        4.3634744552        6.8376203113
 H       -12.1058709765        1.4280322815        7.5077064264
 H       -12.1174876799        3.1809384997        7.4029061529
 H       -10.7468520683        2.3845510872        8.0668065915
 H        -9.0023625091        1.6961491246        6.6050867102
 H        -9.1153964514        1.5514599857        4.8602206427
 H        -9.8205513898        0.3748459975        5.8943961226
 H       -16.0797978462        1.3086143877        1.5245328562
 H       -15.0922312923        1.4006041090        0.0539042528
 H       -14.7722303647        2.4332317129        1.4952378377
 H       -15.6961098031       -0.8933413027        0.7030711149
 H       -14.6975465310       -1.7300195747        1.8822163788
 H       -14.0042602936       -1.3794831250        0.1761568936
 H        -7.3056712398       -2.1451991157       -1.0394265821
 H        -8.9527476798       -1.6825508873       -1.0487745684
 H        -8.4615694478       -2.7284255158        0.2087817296
 H        -7.1130842949       -0.8066210081        2.7310356142
 H        -5.8228818763       -1.3471452030        1.5538382580
 H        -7.1520764956       -2.4266376863        1.9581576993
 H        -5.5974113520        5.7530399843        0.6653157704
 H        -6.8604349202        6.6385857300       -0.2545591613
 H        -6.2121538984        5.3073791264       -0.9908095223
 H        -7.3144970861        6.3040746251        2.3871005721
 H        -8.5087796870        5.1087326997        2.7454963161
 H        -8.8123474898        6.4013344453        1.6278076894
 H       -10.0230223697        9.7727703415       -2.0316256701
 H       -11.2800885738        9.1224500353       -0.9787265260
 H       -11.5776601754        9.9470484352       -2.6090859616
 H       -13.0806846819        7.7006060563       -3.7601557343
 H       -13.0600171639        7.6244445612       -2.0494174741
 H       -12.4694977687        6.2923294038       -2.8122137937
 H        -8.5832600154        6.9465484356       -8.4914270470
 H        -8.7792245274        5.6458769448       -7.2469586385
 H        -7.7731549019        5.4686931353       -8.7695850197
 H        -6.5870017972        4.6670967731       -6.5781364588
 H        -5.6240982198        5.8323447240       -5.6221842674
 H        -5.2293078084        5.3928171750       -7.2910224148
 Na      -10.2999205835        2.7821820871        2.1574797287
