117

 C        -4.7013892105        7.1122408074       -8.0048921745
 C        -6.2205900734        7.2539970378       -8.0715651145
 O        -6.8226582223        8.2086820993       -8.5636952102
 C        -7.0615411374        6.1665477749       -7.3100549076
 C        -7.4876757421        6.9073955600       -5.9315431627
 O        -6.7707523498        6.7132772622       -4.9626154399
 C        -8.5263047379        8.0176597506       -5.9224520614
 C        -9.1281593113        8.3142991129       -4.5910826148
 C       -10.3927580725        7.4509528337       -4.3609942976
 O       -10.6889690053        6.5586161897       -5.0771479291
 C       -11.1315581844        7.5824806011       -2.9361454275
 C       -10.1609712043        6.8055978225       -2.0225837647
 O        -9.2782539576        7.3643456683       -1.3977073912
 C       -10.1559058557        5.2904560073       -2.0669839404
 C        -8.7820386872        4.7368464651       -1.5690288946
 C        -8.9535404826        4.6068921384        0.0448555752
 O       -10.0626106461        4.3174951055        0.5027078386
 C        -7.6413143747        4.9260787684        0.9486390516
 C        -7.1678184243        3.4506213065        1.2814752586
 O        -7.8404909058        2.8276015867        2.0795845709
 C        -5.9542433492        2.7293521053        0.7040731845
 C        -6.1775755539        1.2222994973        0.7622415722
 C        -7.1663856584        0.7120141063       -0.2724077915
 O        -7.3271543328        1.3520346039       -1.2804023098
 C        -7.9382106375       -0.5572038868        0.1495453929
 C        -9.1728314312        0.1236846233        0.9181985076
 O        -9.0066206596        0.3224475560        2.0868377659
 C       -10.4325335683        0.4842636244        0.0760192215
 C       -11.8828179870       -0.0039065797        0.6062550637
 C       -12.7844725098        1.0182676224        1.2700886004
 O       -12.3002080678        2.1138051428        1.5051201854
 C       -14.2095666261        0.7050428291        1.7291187994
 C       -14.2063185149        0.8676837111        3.3747940019
 O       -14.3647101798       -0.1251741524        4.0461541738
 C       -14.0252353747        2.2342300459        4.0265195396
 C       -13.3632292230        2.1377396927        5.4282998955
 C       -11.8388318342        1.7218453974        5.2033801588
 O       -11.5208287303        1.0753940999        4.2414864534
 C       -10.7999182534        2.3160262116        6.0976931884
 C       -10.7544787669        3.7464387266        5.5953582200
 O       -10.3204490088        4.0483138789        4.5075254340
 C       -11.3083945690        4.9009265975        6.3879616023
 C       -11.3388307063        2.1620266014        7.5794747226
 C        -9.4062841199        1.6784878101        5.9426363542
 C       -15.0735943236        1.8351821029        1.0351870971
 C       -14.7385388170       -0.7731491011        1.5128664963
 C        -8.2433963628       -1.3715088670       -1.1476992906
 C        -7.1157603913       -1.4252897413        1.1210756842
 C        -6.4876072812        5.6979514291        0.2793020063
 C        -8.2095115370        5.6023560889        2.2421713032
 C       -11.2675637808        9.0618497614       -2.4383440679
 C       -12.5259302475        6.9508953911       -3.0627932774
 C        -8.2723860018        5.7667796968       -8.0863555846
 C        -6.1710166946        4.9858013229       -6.9000714195
 H        -4.2371202893        7.9918503994       -8.3593358539
 H        -4.2181078246        6.3825847532       -8.6029881128
 H        -4.2610475218        6.8954462972       -7.0618834588
 H        -9.2165999634        7.8298647575       -6.7447703826
 H        -7.9894302755        8.8244525697       -6.3975475174
 H        -9.3485020545        9.3941064048       -4.5538636624
 H        -8.4325040151        8.0812852362       -3.8217774601
 H       -10.2935813796        4.9042214538       -3.0608957116
 H       -10.8976141707        4.7798392121       -1.4176226105
 H        -8.0140473422        5.3965877490       -1.7955684088
 H        -8.6344099646        3.7427138383       -2.0135022868
 H        -5.0264430634        3.2163363054        1.0605431777
 H        -5.8400010175        2.9372038769       -0.3431969483
 H        -6.5529676345        0.8272868416        1.7416647874
 H        -5.2174452734        0.7090491396        0.6296731420
 H       -10.2407433015        0.0470343618       -0.9570930171
 H       -10.3610344478        1.5732778006       -0.1863395073
 H       -11.7232412777       -0.9390439026        1.1789380494
 H       -12.4185906543       -0.4482177002       -0.2536828884
 H       -15.0706644531        2.6273055632        4.0533668522
 H       -13.5216716506        2.9775333726        3.3629579637
 H       -13.7707919306        1.2692623089        5.8753444458
 H       -13.5238388805        3.0511857839        6.1315004295
 H       -12.3877262954        4.7339219111        6.3817965491
 H       -11.1817159708        5.7921724073        5.8213231664
 H       -10.9002387110        4.8148182357        7.3903566303
 H       -11.2082332974        1.1260861883        7.9190831878
 H       -12.4221950592        2.3705180140        7.5640885765
 H       -10.7427773728        2.8698139653        8.2399360078
 H        -8.7981109289        1.9899090599        6.7835591352
 H        -8.8328899959        1.9960705059        5.0718046082
 H        -9.3781443174        0.6008163017        5.9010935190
 H       -15.9784363734        1.9007657808        1.6729057275
 H       -15.4182436587        1.5165806397        0.0556112505
 H       -14.4886769523        2.7548811759        0.8906309166
 H       -15.7101592102       -0.8218914140        1.9429722511
 H       -14.0106593658       -1.5844000143        1.8789425550
 H       -14.9792949837       -1.0343718216        0.5138073261
 H        -7.4416214478       -2.1263848796       -1.3186852261
 H        -8.3801851502       -0.6403946766       -1.9417219448
 H        -9.0965311726       -2.0387860609       -0.9956617142
 H        -7.1743962438       -1.0987294402        2.1751771288
 H        -6.0843499188       -1.3336931950        0.7441319859
 H        -7.4696605677       -2.3991399088        1.1279692336
 H        -5.7417742743        5.9616421488        1.0295435524
 H        -6.8127168253        6.6816167171       -0.0483704709
 H        -5.9917380401        5.1575683376       -0.4599262509
 H        -7.3590914097        6.1037836768        2.7369071210
 H        -8.7328112428        4.9815856337        2.9861809200
 H        -8.9512983368        6.3904473703        2.0255302394
 H       -10.3652938639        9.4697586609       -1.9840731550
 H       -12.0717850335        9.1071321935       -1.7067183912
 H       -11.7072397781        9.7204089563       -3.2105013681
 H       -13.1326759575        7.1474964119       -3.9872790540
 H       -13.0688059758        7.2272073990       -2.1795014771
 H       -12.4168624672        5.8354745757       -3.0208180249
 H        -8.2778483352        6.2593806387       -9.0289316049
 H        -9.2082335709        6.0537573944       -7.6207535761
 H        -8.3341402143        4.6820093597       -8.1746893162
 H        -6.7570740514        4.0715161583       -7.0206821501
 H        -5.8982856291        5.0253801526       -5.8157790656
 H        -5.2815208113        4.9522983317       -7.5259831303
 Na      -10.2495158142        2.7691011055        2.4887196749
