117

 C        -4.7596730626        6.8628971518       -7.7526040281
 C        -6.2457628163        6.8494630960       -8.0330512935
 O        -6.7211934507        7.5217886524       -8.9035999379
 C        -7.1330115701        5.7222135013       -7.2143061281
 C        -7.6243276577        6.5252185052       -5.9194860810
 O        -7.4687235849        6.0390616529       -4.8127428855
 C        -8.2546985282        7.9352067520       -6.0992920075
 C        -9.0399061426        8.3150910595       -4.8539825399
 C       -10.0856274764        7.2595499710       -4.5692012713
 O       -10.3609898155        6.3683239464       -5.3320736189
 C       -10.8331924620        7.3529173154       -3.1609825602
 C       -10.0346193478        6.5885956024       -1.9378974126
 O        -9.6117995343        7.1258965348       -0.9678709190
 C       -10.1182088457        5.0779102387       -2.0195442977
 C        -8.8284689554        4.4819610074       -1.4707135581
 C        -8.8437595371        4.1783936520        0.0498117691
 O        -9.8353940489        3.5795703016        0.4093967584
 C        -7.8011896060        4.6844673427        1.0560838331
 C        -7.0881067933        3.3961567133        1.5975575387
 O        -7.5947354628        2.8605577839        2.5595055521
 C        -5.7716068037        2.7754130989        1.0200599972
 C        -6.0864284478        1.2055212664        0.7909182928
 C        -7.2352656672        1.0103878222       -0.2218406004
 O        -7.4027150266        1.8607917269       -1.0664961604
 C        -8.1881350888       -0.1813620480       -0.1712952285
 C        -9.4257632230        0.3772341671        0.6206623832
 O        -9.3496511051        0.6195999663        1.8034369531
 C       -10.6175455614        0.8568242995       -0.1458395724
 C       -11.9525918871        0.2141912233        0.3738090814
 C       -12.7633568819        1.2624963823        1.2278567029
 O       -12.2602352889        2.3355603434        1.5430170668
 C       -14.2008947932        1.0313487247        1.7125802183
 C       -14.2112195926        0.8955403244        3.3199680212
 O       -14.2663873382       -0.1791197836        3.8844521253
 C       -14.1411775627        2.1717303611        4.1679506956
 C       -13.3568774501        2.0285354133        5.4851002078
 C       -11.8401738930        1.8622402091        5.2698523531
 O       -11.4366835650        1.1811780235        4.3811635130
 C       -10.7334341852        2.6404768492        6.2692940862
 C       -10.6873836212        4.1546558127        5.7538986053
 O       -10.4794331377        4.3589578219        4.5637386075
 C       -10.9222897595        5.3975239950        6.7416081873
 C       -11.1418744283        2.4516706152        7.7485263599
 C        -9.3442783575        2.1392662202        5.9401700345
 C       -14.9631166097        2.3392484863        1.2696863053
 C       -14.7777656281       -0.2730171210        1.2092566485
 C        -8.4824272740       -0.6504568454       -1.6182920399
 C        -7.5175557657       -1.3107419780        0.6021203607
 C        -6.7888958949        5.7030658829        0.3593558511
 C        -8.4188726086        5.4065575383        2.2645369291
 C       -11.0054190681        8.8971932134       -2.6971919105
 C       -12.3222670800        6.7539204169       -3.3075989112
 C        -8.3571140476        5.4098399181       -8.0952536640
 C        -6.1985357317        4.4942928971       -6.9036790251
 H        -4.3141411653        7.8016698927       -7.9575537924
 H        -4.2645520675        6.2204464789       -8.4177555430
 H        -4.3763288276        6.6683401089       -6.7653323525
 H        -8.8579066934        7.9137440853       -6.9827879674
 H        -7.4979356881        8.7416126390       -6.3001153355
 H        -9.5134101508        9.1970084356       -5.1253373596
 H        -8.4504430833        8.5488007909       -3.9920272959
 H       -10.1904138024        4.6808102339       -3.0139149058
 H       -10.9602238335        4.7828981130       -1.4436587070
 H        -8.0128422691        5.1022846253       -1.7487305513
 H        -8.5948681211        3.5307853466       -1.9497321335
 H        -4.8212161872        2.9803726911        1.6068687054
 H        -5.5725173458        3.1922514830       -0.0337705025
 H        -6.1837623684        0.6581329829        1.7435932799
 H        -5.1804476561        0.8541744983        0.3703851726
 H       -10.5348204753        0.8856113869       -1.2699929559
 H       -10.6903705833        1.9903158142        0.0163059683
 H       -11.7463573913       -0.7985863169        0.9091170804
 H       -12.5443371606       -0.1913075832       -0.5608923356
 H       -15.2261530719        2.4503054467        4.4206165812
 H       -13.7676768108        3.0797040760        3.6332883526
 H       -13.6705366888        0.9834016426        5.9306888027
 H       -13.5514193919        2.8352229448        6.1532422776
 H       -11.9311884530        5.3738398983        7.0463720803
 H       -10.8508852607        6.3055884648        6.1059426806
 H       -10.2249740089        5.2452222683        7.5814621301
 H       -10.9524293820        1.3733462700        8.0748121288
 H       -12.1794524538        2.7894267770        8.0125800183
 H       -10.4503134151        3.0386906458        8.3770333575
 H        -8.5874406451        2.4455380437        6.6464658182
 H        -8.9510164129        2.5114739798        4.9855328501
 H        -9.3396134278        1.0621963250        5.9454252596
 H       -15.9308849596        2.4748592113        1.7589781642
 H       -15.1065494233        2.2508131549        0.1656706095
 H       -14.3670012712        3.2316602095        1.5298200204
 H       -15.5269987525       -0.7765142827        1.8423860957
 H       -14.0481415148       -1.0913507425        1.1777054660
 H       -15.1813468435       -0.2060645382        0.1499058543
 H        -7.5334369782       -0.9534662828       -1.9619417798
 H        -8.8609206236        0.1204356830       -2.2792584695
 H        -9.2889783168       -1.4214976731       -1.5295400055
 H        -7.4743630069       -1.1223320152        1.6312973758
 H        -6.5441938393       -1.5136959404        0.1758338587
 H        -8.0173598250       -2.2734900859        0.3710268597
 H        -6.0241753972        5.9417628903        1.0746902804
 H        -7.2858583532        6.5412075502       -0.0255318570
 H        -6.3143559889        5.2488893146       -0.4836339871
 H        -7.8707232334        5.1958865076        3.2216740337
 H        -9.4021172309        5.0041677996        2.5516689890
 H        -8.4777025158        6.4840512841        2.1110892823
 H       -10.2392682916        9.1786778391       -2.0128975335
 H       -11.9338688254        8.9136060878       -2.1291684443
 H       -11.0311827156        9.6037109274       -3.4805666754
 H       -12.9445370843        7.3820217569       -3.9636772055
 H       -12.8130763855        6.7298685443       -2.3391096807
 H       -12.1992079632        5.7527209206       -3.7216107490
 H        -9.2266239413        6.0556258130       -7.8968582457
 H        -8.6284372478        4.3743759911       -8.0083946581
 H        -8.1644844327        5.6230680950       -9.1144549561
 H        -5.3179450029        4.4823850009       -7.5608342655
 H        -6.7135752618        3.5322310937       -6.8566029731
 H        -5.7803091655        4.5527915058       -5.8785379012
 Na      -10.0682459677        2.7105001024        2.8526211620
