117

 C        -4.7345810933        6.1301362557       -7.3926655327
 C        -6.0715668200        5.7136493351       -7.9261656423
 O        -6.5887630553        6.0413201074       -8.9326955430
 C        -7.0587163061        4.8788120895       -6.9688320142
 C        -7.4971757225        5.8208459196       -5.7279661121
 O        -7.2151890206        5.5779356331       -4.5981584106
 C        -8.3244342343        7.0868551399       -6.0609457966
 C        -8.8632824307        7.7896226853       -4.7985569135
 C       -10.3349568469        7.3149802440       -4.5024342052
 O       -11.0366118210        7.0199892000       -5.4582311800
 C       -10.9902404462        7.2420982310       -2.9547803616
 C        -9.9092273222        6.5259354824       -2.0623188554
 O        -9.4722904838        7.0095589336       -0.9867519025
 C        -9.3845143329        5.2124673113       -2.5391567060
 C        -8.0710613581        4.7708877413       -1.7900246128
 C        -8.5027762411        4.5426264925       -0.3095213300
 O        -9.5889092074        4.0780991923       -0.0260179151
 C        -7.4530658573        4.8592207153        0.8837470226
 C        -7.2675651929        3.5710552300        1.9096353825
 O        -8.1479537347        3.2181689306        2.6785506819
 C        -6.0462348100        2.6044408270        1.7002389519
 C        -6.7023880295        1.1904924153        1.4918991265
 C        -7.2759114392        1.1505132501        0.0681065936
 O        -6.7414405790        1.7165319969       -0.8806458710
 C        -8.4980971511        0.2043416910       -0.2360153700
 C        -9.7302284305        0.5711884827        0.6064631969
 O        -9.6639331548        0.8784059922        1.8011262258
 C       -11.1584577214        0.4467810043       -0.0319883035
 C       -12.2463284249        0.2954922420        1.1280640718
 C       -12.9162547737        1.6304521668        1.4094438354
 O       -12.3662510990        2.6691341935        1.1095883808
 C       -14.4007860381        1.4918796587        2.0142060611
 C       -13.9932100718        0.9429524769        3.4943929542
 O       -13.5619383415       -0.1598568857        3.6381336902
 C       -14.2189790515        1.8345727108        4.7696954652
 C       -13.0910317945        1.6123454787        5.7535468620
 C       -11.7738186730        2.1745310695        5.0927023763
 O       -11.5997563675        1.8722427349        3.9236246386
 C       -10.7392240283        2.9899629298        5.8939756529
 C       -10.4431644156        4.3486478043        5.1500584861
 O       -10.5668021257        4.6108448961        3.9853055613
 C        -9.9237432330        5.4511989106        6.0975031043
 C       -11.1194592948        3.1958575842        7.3834956955
 C        -9.3567986349        2.2393752139        5.8841761251
 C       -15.1398936308        2.8957779535        2.0375626950
 C       -15.4084923056        0.4904513631        1.3452270563
 C        -8.6818988034        0.0799607259       -1.7509101662
 C        -8.1056070598       -1.2114824811        0.2777170318
 C        -6.1871956091        5.4270080552        0.3243605319
 C        -8.0714089565        5.9068431817        1.8159850207
 C       -11.2074300206        8.6611417763       -2.3299136382
 C       -12.3315490459        6.4329388809       -3.0756577311
 C        -8.2425166755        4.4805721402       -7.8362288879
 C        -6.4050403245        3.6334042993       -6.3873025728
 H        -4.3718192961        7.1447063155       -7.7133526275
 H        -3.9438458489        5.3883807964       -7.7414346953
 H        -4.6585009740        6.1371136330       -6.2926421259
 H        -9.1731993654        6.8038486807       -6.6550146620
 H        -7.6387119164        7.7873029775       -6.5915413370
 H        -8.8505895066        8.9051413537       -4.8430444797
 H        -8.2002967625        7.5088400398       -3.9024257691
 H        -9.3466552518        5.2077898883       -3.6551747736
 H       -10.2391440781        4.4999246853       -2.2889166586
 H        -7.2830186262        5.4762244000       -1.9049238038
 H        -7.6841924670        3.7927301980       -2.1336721410
 H        -5.4952131930        2.6241041900        2.5964002527
 H        -5.4329467869        2.9185356497        0.8967562090
 H        -7.5699000470        1.0408840847        2.2599016399
 H        -6.0406756433        0.3517884072        1.6220963090
 H       -11.1852854481       -0.4789328447       -0.5774230140
 H       -11.3660997478        1.2699485126       -0.6492129331
 H       -11.7892320939       -0.1357796836        2.0000156648
 H       -12.9714342285       -0.3327194789        0.7155515854
 H       -15.0855787602        1.4203564089        5.2194309797
 H       -14.3809688608        2.8616253099        4.6677401275
 H       -13.0174810667        0.5716031828        5.8582266775
 H       -13.3324696874        1.9845612351        6.8080724848
 H       -10.8268907307        5.6361493139        6.7064657967
 H        -9.5002821741        6.2907460993        5.5495144205
 H        -9.1182956644        4.9687417739        6.7078191726
 H       -11.3597609453        2.3177699792        7.9368030068
 H       -12.0419276859        3.7730503488        7.4269886389
 H       -10.4036252951        3.7620122793        8.0067080843
 H        -8.5441591577        2.9558308533        6.0626648650
 H        -9.1626643339        1.7166080720        4.9512717066
 H        -9.4269967769        1.4730522561        6.6647398813
 H       -16.0603352416        2.9614079549        2.6547961530
 H       -15.4361972593        3.1372212661        1.0128223126
 H       -14.4826644023        3.7317009945        2.3631160089
 H       -16.3426176587        0.5187517035        1.9309388709
 H       -14.9791667991       -0.5470354931        1.2383506158
 H       -15.7196440861        0.8085554451        0.3625408348
 H        -7.7946544919        0.3203257131       -2.3440332349
 H        -9.5629636673        0.5582863366       -2.1414194493
 H        -8.7852373060       -0.9538637423       -2.0266477441
 H        -7.9840254507       -1.2622571156        1.3849271646
 H        -7.1923946889       -1.5946309964       -0.2508379103
 H        -8.8868403875       -1.8801674601        0.0098572496
 H        -5.4352575390        5.5748760028        1.1011400653
 H        -6.4456316384        6.3832007853       -0.1268112097
 H        -5.8323546750        4.8053385203       -0.4400558661
 H        -7.3064364829        6.5423414076        2.3191994915
 H        -8.8132822963        5.5316302405        2.5449393604
 H        -8.6748650134        6.5442119897        1.1346882706
 H       -10.3919843784        9.2558966076       -2.6307179431
 H       -11.2505536654        8.7014368084       -1.3079372944
 H       -12.0867890512        9.1022904405       -2.7414284962
 H       -12.7942696648        6.8889478680       -3.9663099088
 H       -12.9745523778        6.6019327793       -2.2771582334
 H       -12.0547516316        5.4168007478       -3.2787575013
 H        -8.9291106112        5.3094261215       -7.9696309110
 H        -8.7420273007        3.6279556132       -7.3950237857
 H        -7.9351354294        4.1584049539       -8.8162551815
 H        -6.1758963718        2.8528778983       -7.1360603913
 H        -6.9254969598        3.1518389446       -5.5041342249
 H        -5.4065470291        3.9409062661       -6.0099405985
 Na      -10.3456698049        3.2317460856        2.0545739470
