117

 C        -4.5949702946        5.7847294851       -7.4462092823
 C        -6.0366298413        5.4690419892       -7.9370255149
 O        -6.4836775328        5.9087321861       -8.9395307839
 C        -7.0629484858        4.7554971791       -6.8646848897
 C        -7.4299804546        5.8249239477       -5.7502231330
 O        -7.1914823898        5.5966210465       -4.5963343385
 C        -8.3909648068        6.9650846716       -6.1824824770
 C        -8.9566141049        7.7192524776       -4.9147745332
 C       -10.4023739381        7.3168637158       -4.5683319051
 O       -11.2597097048        7.2704110339       -5.4671906266
 C       -10.8550485427        7.2189721697       -3.0420586508
 C        -9.8614631296        6.5487665462       -2.0267665341
 O        -9.4708004113        7.0139784004       -0.9334670123
 C        -9.3733697144        5.1579548015       -2.4842398020
 C        -8.1727335232        4.5932253544       -1.7146040649
 C        -8.4737206143        4.2453209528       -0.2437309388
 O        -9.5630168626        3.7840474179        0.0490561605
 C        -7.3734750132        4.6755355389        0.9491045093
 C        -7.2530797885        3.4322178743        1.8321691346
 O        -8.0927409073        3.1107099840        2.6584425255
 C        -6.0527153420        2.5111606277        1.7571080146
 C        -6.4130536407        1.0893015479        1.2497612284
 C        -7.3272605065        1.1800474364        0.0901093179
 O        -7.2564622554        2.1432056122       -0.6751442171
 C        -8.4643179092        0.1049177102       -0.1428836086
 C        -9.7193462735        0.7348687351        0.6995456203
 O        -9.5678995424        1.0902624231        1.8486464367
 C       -11.1210529288        0.5581688249        0.0246250776
 C       -12.2986525204        0.3352300754        0.9756802438
 C       -13.0028594976        1.6449238182        1.3387972225
 O       -12.4848900339        2.7246325845        1.0819605985
 C       -14.3506071661        1.5600693713        2.1056227608
 C       -14.0822916830        0.9189013170        3.5454362694
 O       -13.7850343335       -0.2320772343        3.6155027928
 C       -14.2452258794        1.7652392385        4.8494977698
 C       -13.0528504791        1.9081782689        5.8427858463
 C       -11.8488012733        2.5109995387        5.0441121143
 O       -11.8939466761        2.4533406607        3.8472977022
 C       -10.5919301460        3.1262035384        5.6882809663
 C       -10.4538619618        4.6701113434        5.1683414166
 O       -10.7295943614        4.8671890329        4.0013733079
 C        -9.8681163923        5.7196372941        6.0986328002
 C       -10.7402447536        3.0701147958        7.2704378698
 C        -9.4117653938        2.2447656350        5.3422098327
 C       -14.9364752334        2.9154545227        2.1120511729
 C       -15.3014517356        0.5316233605        1.3595163030
 C        -8.6878712621        0.0683636712       -1.7094333022
 C        -8.0864928345       -1.3490734973        0.3482607334
 C        -6.0242295895        5.2125212455        0.3543119667
 C        -8.0293301788        5.8476458773        1.6225358435
 C       -11.1501075094        8.6219196238       -2.6033839938
 C       -12.0528615108        6.2105410115       -2.9763899989
 C        -8.3282815486        4.2741732048       -7.5635362924
 C        -6.4488499875        3.5536489370       -6.1511739533
 H        -4.5815332731        6.3623160308       -6.5630086364
 H        -3.8907528499        6.0899898319       -8.1720513154
 H        -4.2058190308        4.8751579884       -7.0731432830
 H        -9.2081298834        6.6453373438       -6.8303381166
 H        -7.7780640269        7.6992693500       -6.7681855249
 H        -9.0413915997        8.7316812965       -5.1314442656
 H        -8.3133051564        7.6598518572       -4.0643744854
 H        -9.0648628454        5.1947601540       -3.5219775751
 H       -10.2476473591        4.5633073616       -2.4793222981
 H        -7.4452107957        5.3566757530       -1.7343019326
 H        -7.8320206559        3.6255886856       -2.2776558749
 H        -5.5944061184        2.4590929236        2.7853426315
 H        -5.2419262195        2.9622398897        1.1345374708
 H        -6.9695685519        0.5317721839        2.0314159055
 H        -5.5526327387        0.4733154128        1.0761984500
 H       -10.9850241550       -0.4341715597       -0.4999390700
 H       -11.3876610861        1.3999842216       -0.6935125680
 H       -12.0073761633       -0.1727594626        1.8718132180
 H       -12.9589326434       -0.2896974330        0.3856106411
 H       -14.9958858337        1.1441655111        5.4525849500
 H       -14.7533326406        2.7698963432        4.7906841414
 H       -12.8548723503        0.9207232646        6.2835559829
 H       -13.3664717418        2.4779879542        6.6885856243
 H        -9.9696772966        5.5613212213        7.1396172294
 H       -10.3260356304        6.6371144953        5.7919176674
 H        -8.7988252981        5.6964187354        5.7413265665
 H       -10.8537589500        2.0052350134        7.5572463513
 H       -11.5808266201        3.6346299582        7.7097853885
 H        -9.8818581988        3.4349456031        7.8197277076
 H        -8.5692755143        2.5605500624        5.9360058250
 H        -9.0778089253        2.3664905186        4.3091230794
 H        -9.7220425944        1.2105524799        5.4941328052
 H       -15.9931675348        2.8565660522        2.2710324810
 H       -14.7715290800        3.4337446578        1.1721123699
 H       -14.5842937670        3.5107784269        2.9420066319
 H       -16.3448234554        0.7924352684        1.4032698275
 H       -15.3382193881       -0.4298928973        2.0003003276
 H       -15.0422130657        0.3582883874        0.3279077293
 H        -7.7845322247       -0.3323817161       -2.2000266996
 H        -8.7483026886        1.0637832470       -2.1354270351
 H        -9.6293578188       -0.3727102824       -2.1432923102
 H        -7.9287321828       -1.3311577606        1.3980260356
 H        -7.2283828014       -1.7846563886       -0.1803903287
 H        -8.8556511634       -2.0536416462        0.0956680542
 H        -5.2628783198        5.0517683485        1.1747551375
 H        -6.1579684011        6.2689859179        0.1204335894
 H        -5.6738303739        4.7636546382       -0.5416882536
 H        -7.7340973021        5.9204838196        2.6634709380
 H        -9.0894727314        5.7054750461        1.6560088456
 H        -7.8141949932        6.7440754464        1.1111575288
 H       -10.2504929330        9.2830293315       -2.4708645821
 H       -11.6488468542        8.5944412750       -1.6009696671
 H       -11.7511859491        9.1768409542       -3.4043860995
 H       -13.0063757089        6.7814426605       -3.1169963150
 H       -12.0988043898        5.8452183737       -1.9834392041
 H       -11.8735549192        5.4441773077       -3.7594211160
 H        -8.5512098358        4.8362732975       -8.4997746039
 H        -9.1447390440        4.1881320808       -6.8450422495
 H        -8.1800627856        3.2550817996       -7.8791546382
 H        -5.7315066298        3.0213295903       -6.7069930707
 H        -7.1759477332        2.8996251495       -5.7489227893
 H        -5.9527199978        3.9040070100       -5.2812870993
 Na      -10.4939083556        3.3076203977        2.2131404084
