117

 C        -4.6013243212        4.8076329351       -7.3703258116
 C        -6.0700016775        5.0605077612       -7.5800119887
 O        -6.5560660781        5.7280909504       -8.4799436630
 C        -7.1407241323        4.5011243072       -6.5203149986
 C        -7.6194921350        5.6472878345       -5.6684671627
 O        -7.5187707977        5.6033869667       -4.4393124594
 C        -8.2708026755        6.8798448067       -6.2964464829
 C        -9.1309681883        7.7553988748       -5.2918316712
 C       -10.2996046091        6.9861480803       -4.7709381213
 O       -10.5954816148        5.9012581739       -5.2926726274
 C       -10.9239436813        7.3312893265       -3.3084274599
 C        -9.7774281039        6.6689892686       -2.3358970319
 O        -9.1862839651        7.2022298523       -1.4367027270
 C        -9.5588659781        5.1051933379       -2.5567121023
 C        -8.3015423119        4.6015045483       -1.8249210771
 C        -8.4334337391        4.5936606504       -0.2812404831
 O        -9.5228405589        4.3306606441        0.2241218619
 C        -7.1882027124        4.8263120699        0.6409993200
 C        -7.0558129465        3.5958644108        1.6067796641
 O        -7.9484236731        3.4461747116        2.4426619262
 C        -6.0047330437        2.4900168733        1.2797952749
 C        -6.6988991304        1.1794664237        1.3853551169
 C        -7.3617473833        0.8275535288        0.0136849392
 O        -7.0002906367        1.3775399642       -0.9859267369
 C        -8.5508922893       -0.2760126117       -0.0121971313
 C        -9.8348562811        0.4598728673        0.5655772249
 O        -9.6744550927        0.9829577042        1.6382747060
 C       -11.2727176193        0.4091247374       -0.0433057849
 C       -12.3419440815        0.2619316356        0.9939743283
 C       -13.0367293518        1.6338166972        1.3728125706
 O       -12.3737304041        2.6292835452        1.2587858262
 C       -14.3986020043        1.7931011066        2.0967418151
 C       -14.0108002477        1.4179922654        3.5788171830
 O       -13.5018759797        0.3392796571        3.8683359719
 C       -14.4094088412        2.3584018489        4.6982134256
 C       -13.3498627077        2.4575195053        5.8705641086
 C       -12.0184677601        2.8919101595        5.1435982765
 O       -12.0737869075        3.1437680337        3.9074206310
 C       -10.7241900978        3.2406677008        5.9253509639
 C       -10.2852831731        4.6408653788        5.2898475167
 O        -9.8474839121        4.6989078656        4.1751930649
 C       -10.5209593808        6.0263586575        6.0904932002
 C       -10.8803495659        3.2303848730        7.4578643092
 C        -9.6628211673        2.1528849550        5.4906673589
 C       -14.8150836865        3.2810076303        1.9683225091
 C       -15.4479836977        0.7508221134        1.8427742638
 C        -8.8333898166       -0.6632534010       -1.4806669691
 C        -8.4332193459       -1.5628069003        0.8391763896
 C        -5.8669602379        5.0158770005       -0.1668176961
 C        -7.4834875952        6.1453737060        1.4285930448
 C       -10.8744202080        8.8297259054       -2.9430586817
 C       -12.3454291312        6.7182761839       -3.1585458096
 C        -8.5452133865        4.0020291416       -7.2095345029
 C        -6.5109137427        3.3750198639       -5.7391750729
 H        -4.3173955729        3.9396658641       -8.0471085973
 H        -4.2588448931        4.5500973928       -6.3556107451
 H        -4.0694153157        5.7210798251       -7.7179803702
 H        -8.8129249895        6.6520662799       -7.2214136799
 H        -7.4948514440        7.5393535770       -6.7594274133
 H        -9.4942415503        8.6538181440       -5.7885196042
 H        -8.5422420265        8.0334934198       -4.4423067146
 H        -9.5475699893        4.7682405381       -3.5654507599
 H       -10.3801476395        4.6760190054       -2.0085596244
 H        -7.3545670962        5.1715798484       -2.1927525242
 H        -8.3747714956        3.5884211109       -2.1753042686
 H        -5.0848906282        2.5516708879        1.9488241945
 H        -5.5563291656        2.6010142112        0.2338477181
 H        -7.4492346452        1.2154626280        2.2018936096
 H        -6.0137317938        0.4181189361        1.6467224539
 H       -11.2573592516       -0.4675537903       -0.7534676335
 H       -11.4981792252        1.2599130899       -0.7368818794
 H       -11.9680018138       -0.1386858360        1.9551955252
 H       -13.1145900878       -0.4681640923        0.7205152301
 H       -15.4050927220        1.9321337636        5.1123258537
 H       -14.5414608382        3.3939262329        4.2426329377
 H       -13.3142940988        1.5497320235        6.3795509015
 H       -13.6498260692        3.2790133289        6.6033126427
 H       -11.4658416421        6.5048221733        5.7387167244
 H        -9.8623887427        6.8932345411        5.8373004102
 H       -10.6648687980        5.8771474056        7.1239114383
 H       -11.1557835663        2.2866127376        7.8387709294
 H       -11.6212570058        3.9454860381        7.7219636773
 H        -9.9072113001        3.5332208849        7.8311921718
 H        -9.0239684939        1.8555223001        6.3198531248
 H        -9.1944356534        2.5805814665        4.5977526766
 H       -10.1986304105        1.2514594988        5.1879385594
 H       -15.7001436422        3.5722382387        2.5481045700
 H       -15.0479506696        3.4678106346        0.9327299927
 H       -13.9332382154        3.8852789209        2.1387434326
 H       -16.2247608867        0.8999817743        2.5787036155
 H       -14.9293416219       -0.1294750947        1.8353986471
 H       -15.8820576831        0.8685447647        0.8498575050
 H        -7.9756913646       -1.1739537799       -1.9325690845
 H        -8.9771283784        0.2336619237       -2.1195337302
 H        -9.4915334625       -1.4617602183       -1.6773114635
 H        -8.2073713225       -1.3320989090        1.9072554724
 H        -7.6313149954       -2.1586653326        0.4506984471
 H        -9.4103787585       -2.0520686985        0.9190636218
 H        -5.1004031673        5.1065167298        0.5788698309
 H        -5.7295669728        5.9595290135       -0.7135962146
 H        -5.5822616834        4.1733508537       -0.8923460297
 H        -6.5465592848        6.4980078623        1.8333815238
 H        -8.2217436864        5.9989722978        2.2279528276
 H        -7.8505640285        6.9432812583        0.7542825959
 H        -9.8443930714        9.1240624861       -2.8734562299
 H       -11.4087894313        9.0320369659       -1.9898832278
 H       -11.4141497587        9.4043730760       -3.6467604589
 H       -13.0692149824        7.4542355525       -2.9213299534
 H       -12.3238836552        5.9228895594       -2.3636249532
 H       -12.6886064623        6.1948475319       -4.0209537728
 H        -8.6512272782        4.3638432853       -8.2067915172
 H        -9.3513273045        4.5085839448       -6.6941861300
 H        -8.5801954177        2.9130101098       -7.0589349979
 H        -5.9926208545        2.6301690647       -6.3926475258
 H        -7.3176408901        2.8332597964       -5.1759671128
 H        -5.7981193886        3.8212147273       -5.0134239755
 Na      -10.2234654921        3.3960040995        2.1422305170
