117

 C        -4.6122185363        4.0631341070       -7.6472137407
 C        -6.0159783368        4.7392839324       -7.6900770719
 O        -6.3131747050        5.5231525727       -8.5197718237
 C        -7.1503517127        4.4380177201       -6.5887166340
 C        -7.6056388418        5.7062691795       -5.9333765698
 O        -7.2002974339        5.9915523298       -4.8094073807
 C        -8.4005629123        6.7248334980       -6.6944890908
 C        -9.2318970606        7.6661935527       -5.7790079512
 C       -10.0156722555        6.7953782671       -4.7931135248
 O       -10.4637811361        5.7358170226       -5.2345158432
 C       -10.7061257698        7.3136069333       -3.4712001022
 C       -10.0025384344        6.5242648270       -2.2925966007
 O        -9.5614759028        7.0637941744       -1.3321531248
 C       -10.0484852146        4.9466610826       -2.3567930086
 C        -8.7515391538        4.4030578964       -1.7141127697
 C        -8.7035340801        4.4268782976       -0.1959338232
 O        -9.6612718001        4.4944461043        0.5673794359
 C        -7.2730236332        4.5432790629        0.5885115699
 C        -6.9032713525        3.2130309364        1.3205316626
 O        -7.5652433331        2.9576584290        2.3215244370
 C        -5.8008376335        2.2561630067        0.8240345073
 C        -6.3662182246        0.8635625495        0.8582314238
 C        -7.5880240937        0.6858578631       -0.0044102329
 O        -7.7446083929        1.3895769337       -0.9799553387
 C        -8.6636599353       -0.4265951053        0.2850246679
 C        -9.9345955832        0.4010583691        0.8139572581
 O        -9.7730119528        1.1196023497        1.7692891866
 C       -11.3001066792        0.3031971538        0.2046729882
 C       -12.4968522457        0.2673740374        1.1524064587
 C       -12.9316484990        1.7578320420        1.3969895730
 O       -12.2213223161        2.6858914955        1.1446380685
 C       -14.3567861640        2.0108103703        1.9211814519
 C       -14.1554828315        1.8368227855        3.4766980527
 O       -13.5656402816        0.8319014914        3.8217211209
 C       -14.4208586368        2.8450310590        4.5767954083
 C       -13.3380152668        2.7366353418        5.7446970162
 C       -11.9317871044        3.1625197936        5.1821850411
 O       -11.8516428345        3.1241033725        3.9551976396
 C       -10.7545718354        3.6526247281        6.1360179294
 C       -10.1412550717        5.0572122879        5.5622329520
 O        -9.9623644397        5.1410590324        4.3793527886
 C       -10.1813313635        6.2254849818        6.5366333229
 C       -11.2291946808        3.6431418203        7.6179260835
 C        -9.5640083882        2.5536771705        6.0472160031
 C       -14.7857664078        3.4306935494        1.4177469527
 C       -15.4460427276        0.8978646079        1.5519470424
 C        -8.8777518045       -1.1664053964       -1.0954258077
 C        -8.3500649628       -1.4208015760        1.3809568681
 C        -6.1918067301        5.0720671304       -0.3296201316
 C        -7.5389100041        5.6260244806        1.6317459527
 C       -10.5515029310        8.8176673873       -3.3679749810
 C       -12.2372226308        7.0464430298       -3.4495467812
 C        -8.2652313768        3.6792592357       -7.3955921803
 C        -6.6356902776        3.4907104426       -5.5178853493
 H        -4.6508410578        3.0494022377       -7.2585369931
 H        -3.9885027708        4.6553460280       -7.0533556241
 H        -4.2837781964        4.0019704523       -8.6550183486
 H        -9.1063851380        6.2462866236       -7.3094460302
 H        -7.7043901198        7.2783485839       -7.3427283267
 H       -10.0580535162        8.1675600318       -6.3111965983
 H        -8.6467274876        8.4838214796       -5.3410514635
 H       -10.1142314570        4.6738245280       -3.4171895116
 H       -10.9565714072        4.5809350430       -1.8700735027
 H        -7.8022270468        4.7405076720       -2.2578051491
 H        -8.6930656101        3.3859791636       -1.9961607349
 H        -5.0562672334        2.2516412416        1.5447185004
 H        -5.5507872109        2.5248963204       -0.1722344270
 H        -6.6008842980        0.6751884694        1.9808903809
 H        -5.6208659401        0.1896888800        0.4853976289
 H       -11.3307022287       -0.5537407607       -0.4827009914
 H       -11.3452750860        1.1499053658       -0.4649892475
 H       -12.3152787805       -0.2672021667        2.1251927335
 H       -13.2413808419       -0.2929557660        0.6038633052
 H       -15.3611880666        2.7117722349        5.0393703403
 H       -14.4017067023        3.7855167004        4.0956045333
 H       -13.4479312486        1.7749690283        6.1595828802
 H       -13.6251066125        3.5654482760        6.5119449973
 H       -10.9670319178        6.0866972399        7.3159437415
 H       -10.3707770857        7.1734597456        5.9488706832
 H        -9.2977183828        6.4854017021        7.0298246960
 H       -11.5153419126        2.6488871633        7.8412740307
 H       -12.0479465653        4.3281201278        7.7726986628
 H       -10.3936520986        3.8848357755        8.3014331288
 H        -8.6637899025        3.1537024877        6.0704151638
 H        -9.5829647509        2.0135157804        5.0925788362
 H        -9.7420083839        1.8694867344        6.8637897348
 H       -15.7843375746        3.7128766994        1.7622533494
 H       -14.7992848954        3.3236750694        0.3692398789
 H       -14.0951509160        4.1916796706        1.7027548061
 H       -16.4384235151        1.2017779378        1.9593163488
 H       -15.2393403171        0.0521181646        2.1167777106
 H       -15.4286862484        0.7536502751        0.4562402593
 H        -7.9104443272       -1.6237339642       -1.3628206578
 H        -9.1770583724       -0.5813552577       -1.9888025223
 H        -9.6639058048       -1.8988264970       -1.0472147359
 H        -8.2068084894       -0.8642953303        2.3344142322
 H        -7.4444806910       -1.9447113733        1.1254609788
 H        -9.0430090963       -2.2308385442        1.3733007186
 H        -5.3255243231        5.3156095406        0.2658538473
 H        -6.5671718093        5.9848601963       -0.8235308252
 H        -5.7242784529        4.3888241919       -1.1248713345
 H        -6.6006179823        5.8275776106        2.0641357643
 H        -8.2274408770        5.4218589234        2.4172196784
 H        -7.8357888203        6.5033935678        1.0712400496
 H        -9.5264159017        9.1975662168       -3.6282561476
 H       -10.6787642058        9.0141102559       -2.2396758503
 H       -11.2310839310        9.3122678579       -4.0823698726
 H       -12.6049194852        6.2100560218       -2.8559618876
 H       -12.5867814005        6.6854217384       -4.4710849694
 H       -12.8559711105        7.9363538013       -3.3239036294
 H        -8.7085101256        4.4022164767       -8.0658914775
 H        -8.9296037394        3.2005651375       -6.6577931300
 H        -7.8250222596        2.8808706225       -8.0456695855
 H        -6.5247231523        2.4662029484       -5.8576637958
 H        -7.3583502265        3.5732609172       -4.6768595014
 H        -5.7325979158        3.9212156278       -5.0953431645
 Na       -9.8223955755        3.3426584992        2.7041840870
