117

 C        -4.6277220219        3.8157650807       -7.7749705706
 C        -5.9215536484        4.6278757209       -7.8095399590
 O        -6.2299042585        5.4266674458       -8.7017193166
 C        -7.0156669331        4.3689617628       -6.6604121196
 C        -7.5023589592        5.6796425310       -5.9550235028
 O        -7.0170779896        6.0004073613       -4.8946438021
 C        -8.4225135547        6.6676093269       -6.6040916557
 C        -9.1719320356        7.4918506824       -5.5147063362
 C       -10.2512048547        6.6813617283       -4.7715568822
 O       -10.5144048123        5.5581044826       -5.0796615657
 C       -10.8459563040        7.3192729755       -3.4881425655
 C       -10.0829243557        6.5485450453       -2.3648223570
 O        -9.2933069758        7.1381174201       -1.6115908256
 C       -10.1849114304        5.0228792222       -2.2516204472
 C        -8.8522929760        4.4709920890       -1.7448144803
 C        -8.7193213205        4.5074669262       -0.1977158915
 O        -9.7290100287        4.2783053222        0.4209378581
 C        -7.3533780817        4.5622255926        0.5594554223
 C        -6.9668918212        3.2104784849        1.1789446431
 O        -7.5901526277        2.7899355104        2.1347010993
 C        -5.8090970463        2.3347802744        0.5969170249
 C        -6.3131978832        0.8154758987        0.7737832913
 C        -7.6557197526        0.6612490282        0.0594191004
 O        -7.8315174424        1.4134159640       -0.8725195848
 C        -8.6143367944       -0.5207670925        0.3751434546
 C        -9.9113244596        0.2225701469        0.9281190325
 O        -9.8450697380        0.8650384628        1.9492098424
 C       -11.2377866019        0.1652663187        0.2127257818
 C       -12.4556217588        0.3833932436        1.1495692724
 C       -12.8157342880        1.8468452515        1.3888979628
 O       -12.1067398005        2.8117681510        1.1421724024
 C       -14.3377760494        2.1063034019        1.9330274910
 C       -14.1321242289        1.9678563923        3.5140363922
 O       -13.6458672132        0.9688915085        4.0152910501
 C       -14.3319868635        3.0889369048        4.5236617826
 C       -13.3520083380        3.0270963826        5.6829219727
 C       -11.9448144170        3.1847121958        5.1201279125
 O       -11.7315060109        3.0437115865        3.9378632917
 C       -10.8558770690        3.6978015681        6.1984304911
 C       -10.3309010824        5.0275175997        5.6007478408
 O       -10.0903572847        5.1026516045        4.3769203763
 C       -10.0464565974        6.2380808023        6.5198959248
 C       -11.3237387411        3.7721390206        7.6847492607
 C        -9.6441865997        2.7526332728        6.0081592594
 C       -14.8819425609        3.5629221934        1.6745940762
 C       -15.3766565477        1.1363657029        1.4538531580
 C        -9.0030718370       -1.3185684131       -0.8976511452
 C        -8.0897026651       -1.4684087081        1.4561733052
 C        -6.2768442276        5.1121053338       -0.3358801722
 C        -7.5940806373        5.6784059629        1.8029265029
 C       -10.4880923632        8.7966156314       -3.1461499505
 C       -12.4098387487        7.0887005876       -3.4885235537
 C        -8.1735454940        3.6438070405       -7.4230305047
 C        -6.4608646942        3.4566886354       -5.5248057776
 H        -4.8911631996        2.7603630383       -7.7409865611
 H        -4.0931998826        4.1243773068       -6.8059095805
 H        -3.9729512568        3.8831873973       -8.6839442611
 H        -9.1406528932        6.2102705036       -7.3457990729
 H        -7.8262557624        7.4599677073       -7.0751278520
 H        -9.6122737198        8.4183060970       -5.9580835321
 H        -8.3844189390        7.9187259901       -4.8406316309
 H       -10.6460880839        4.5009171051       -3.1122621521
 H       -10.9122985955        4.9227749423       -1.4027774087
 H        -8.0160990326        4.8437337967       -2.2746393149
 H        -8.7628488174        3.3976336973       -2.1764555863
 H        -4.9314811410        2.4705642177        1.3090251939
 H        -5.6559264768        2.4698420063       -0.4842576965
 H        -6.3877239769        0.5642104618        1.7668027686
 H        -5.5572358627        0.2006585978        0.2505739730
 H       -11.3063218873       -0.7393599890       -0.3746291551
 H       -11.2192380924        1.0555385811       -0.4338031749
 H       -12.4011243756       -0.2269748881        2.0707475772
 H       -13.3400031188        0.0343746137        0.5393834213
 H       -15.4177761200        3.0357315784        4.8437790674
 H       -14.2655590412        4.1210367695        4.0803272376
 H       -13.3601068231        2.0324308330        6.2531033950
 H       -13.5602959992        3.7969395178        6.3268217349
 H       -10.6690526872        6.1704095978        7.4119048007
 H       -10.0721903965        7.1611461543        5.9874261899
 H        -8.9671737019        6.3472584791        6.8736097408
 H       -11.7011001568        2.7950192994        8.0931268977
 H       -12.0825533881        4.5770141197        7.7036920752
 H       -10.4879664770        4.0903089409        8.3120584063
 H        -8.9265385287        2.9770368473        6.7770990170
 H        -9.1700042123        3.0835767460        5.1101902013
 H       -10.0107875501        1.7390934723        5.9453884258
 H       -15.6542098719        3.7806743644        2.3953038862
 H       -15.2972648529        3.6349563360        0.6488692648
 H       -14.0833503137        4.3021221375        1.8397746981
 H       -16.3558371967        1.4947621247        1.7258696413
 H       -15.3169035627        0.1779396447        2.0289282347
 H       -15.3084515319        1.1001672031        0.3814903692
 H        -8.0935259244       -1.7529628788       -1.2674088982
 H        -9.2594318442       -0.7097567114       -1.7396210194
 H        -9.8982217395       -1.9506463338       -0.7585577058
 H        -8.3100003926       -1.0112556778        2.3778044821
 H        -6.9980516546       -1.5279748476        1.4232175774
 H        -8.3799221314       -2.4889337715        1.3032105650
 H        -5.3350743925        5.1703821242        0.2218837610
 H        -6.5403349751        6.1015692310       -0.6310940846
 H        -6.0848947839        4.5682461035       -1.1904319075
 H        -6.6745236822        6.3011187763        1.8872278019
 H        -7.7095460624        5.1646759239        2.7565195419
 H        -8.4240827647        6.3436435259        1.5977109021
 H        -9.4343108846        8.9683913419       -3.2422172265
 H       -10.7860642754        8.9834609964       -2.1677454498
 H       -10.9595982161        9.4334757130       -3.8793190211
 H       -12.6320831826        6.0823525010       -3.0856376878
 H       -13.0083058651        7.1472563773       -4.3339498574
 H       -12.8633322285        7.7931197577       -2.7654796340
 H        -8.0622079159        3.7436256429       -8.5081358782
 H        -9.0704239840        4.0135058361       -6.9592878358
 H        -8.1635666607        2.5929221261       -7.2580877599
 H        -6.1303335834        2.5185205813       -5.9392911067
 H        -7.2459152509        3.2244637761       -4.8464160647
 H        -5.6412167839        3.9713610886       -5.0439702794
 Na       -9.8780919143        3.3620906424        2.4630906710
