117

 C        -4.6037311730        3.8054490058       -7.8756666951
 C        -5.8890380040        4.5734653250       -7.7917419612
 O        -6.1021951167        5.3633669815       -8.6664054764
 C        -7.0152120024        4.2978291457       -6.7001719954
 C        -7.3951264102        5.6987507525       -6.0026282759
 O        -6.9014855391        5.9290121439       -4.9183551499
 C        -8.4620795290        6.5876039881       -6.6256738385
 C        -9.1167388732        7.4732207404       -5.4666516914
 C       -10.1960678886        6.6394671915       -4.7102133748
 O       -10.5898395150        5.5748793217       -5.0914718652
 C       -10.8157886773        7.2905242141       -3.4005024122
 C       -10.0724662778        6.5711182385       -2.2856349945
 O        -9.1899239013        7.1730070378       -1.7316653141
 C       -10.2579324638        4.9845685749       -2.1656772668
 C        -8.8886346295        4.4617910347       -1.7107929073
 C        -8.7365025071        4.3757870245       -0.2128654622
 O        -9.7515019111        4.1821060998        0.4329573767
 C        -7.3345833886        4.6062096416        0.5136857051
 C        -7.0443034617        3.2071082623        1.1779641902
 O        -7.7106358435        2.7726244045        2.1127691977
 C        -5.9918696423        2.3161017867        0.5111169890
 C        -6.2672567611        0.8533696152        0.7140942457
 C        -7.6399520893        0.6449028429       -0.0324344715
 O        -8.0036025894        1.4026997643       -0.8821288304
 C        -8.6331315771       -0.5354264524        0.4161622484
 C        -9.9443590652        0.1703255205        1.0871700088
 O        -9.7756989422        0.7633728229        2.1244805998
 C       -11.2693482389        0.2135453397        0.2406859114
 C       -12.5405542861        0.5270436898        1.1310983127
 C       -12.8318748425        1.9925596903        1.3345437739
 O       -12.0275297871        2.8580850651        1.1347324340
 C       -14.2219726651        2.2075655353        2.0524809433
 C       -14.0257194410        1.9074033669        3.5782501042
 O       -13.7905130316        0.7442156890        3.9220828444
 C       -14.3369534232        3.1838249415        4.4184834447
 C       -13.4693143731        3.2913666408        5.6254868477
 C       -11.9799450899        3.2645423875        5.1843279128
 O       -11.7286623257        2.9357313208        4.0496828246
 C       -10.7984841264        3.7393255012        6.1161909588
 C       -10.2677307569        5.0974896780        5.5950075310
 O       -10.0962796883        5.1507168782        4.3832335284
 C       -10.0078632590        6.3337658443        6.4565794029
 C       -11.3092076987        3.7841607097        7.5761627770
 C        -9.6142340329        2.6680226548        6.0448330980
 C       -14.7985990291        3.6224311533        1.6902391133
 C       -15.3699656705        1.2073944962        1.5705675513
 C        -8.8752859841       -1.3776729363       -0.8560174430
 C        -7.9938093243       -1.4724360871        1.5056493828
 C        -6.2639118759        5.2749737615       -0.3735472232
 C        -7.5408873601        5.6087728346        1.7310127187
 C       -10.5856287425        8.8170328575       -3.3008048910
 C       -12.3433784826        7.0454637229       -3.3546469001
 C        -8.3168183527        3.6869572128       -7.3149900822
 C        -6.3815896908        3.4275440694       -5.5870711564
 H        -4.7759579262        2.7872434413       -8.2672408675
 H        -4.1528396272        3.8310274410       -6.8369579616
 H        -3.9155841925        4.2809755624       -8.6294717075
 H        -9.2321083990        5.9364313606       -7.0220430897
 H        -8.0540446616        7.2755094200       -7.4202404811
 H        -9.5501500062        8.3807408429       -5.7709457779
 H        -8.3258980841        7.7964563699       -4.7788118544
 H       -10.5611998411        4.5515810373       -3.1317986444
 H       -11.0222834250        4.7050419473       -1.4860469447
 H        -8.0564662415        4.9666140725       -2.1964022830
 H        -8.7345166802        3.5338092097       -2.1957645579
 H        -5.0371189060        2.5135266314        1.0767132703
 H        -5.9724780378        2.4376332608       -0.5807364983
 H        -6.4635116773        0.6373704371        1.8032483826
 H        -5.3950273255        0.3352756040        0.3559276352
 H       -11.3105316050       -0.8608130375       -0.1881750956
 H       -11.1372360489        1.0072900721       -0.5702231591
 H       -12.3103357747        0.1325552217        2.1067009876
 H       -13.3594390925        0.0460172183        0.7523312918
 H       -15.4644747804        3.1417009275        4.5962242934
 H       -14.2303424770        4.1563984370        3.8460325701
 H       -13.5263376780        2.4036292635        6.2723772942
 H       -13.7081065485        4.1664684910        6.2284670351
 H       -10.7216794504        6.3196592579        7.2941755413
 H        -9.7215292763        7.2818673713        5.9884319776
 H        -9.0767977404        6.1498785497        6.9320506551
 H       -11.5165163589        2.7980930796        7.9471703735
 H       -12.1535533902        4.4546252048        7.6876588833
 H       -10.4594333272        4.1843456899        8.1932989886
 H        -9.0917227145        2.7466455011        6.9970141118
 H        -8.8998551888        2.9150911891        5.2837749364
 H       -10.1277054473        1.7182709540        5.9353203183
 H       -15.6917219133        3.7668914476        2.3385783968
 H       -15.1472162792        3.5516735584        0.6562976216
 H       -14.1360957869        4.4858893191        1.8285565098
 H       -16.3611740038        1.4996987749        2.0106442594
 H       -15.2297492556        0.2240826059        1.8881117048
 H       -15.4385299851        1.3792403458        0.4961742265
 H        -7.9085441057       -1.5376271507       -1.3433015788
 H        -9.4063260235       -0.8394871100       -1.6686337846
 H        -9.5027033837       -2.1877678457       -0.6375430642
 H        -7.9385287676       -0.8613629994        2.4369286550
 H        -6.9399513161       -1.7367482593        1.2592807616
 H        -8.5047621480       -2.3801281052        1.5874773765
 H        -5.2931450894        5.1619364341        0.0568101742
 H        -6.4042326185        6.3183015038       -0.5910218765
 H        -6.2406046756        4.7393482852       -1.3375018521
 H        -6.6490186919        6.2564813463        1.8631437304
 H        -7.6816958714        5.0228181540        2.6457485061
 H        -8.4206073228        6.2899565646        1.5544649601
 H        -9.5574037276        9.0121854299       -3.1095324321
 H       -11.1891233166        9.1438505607       -2.4824378293
 H       -10.8855250127        9.3082376917       -4.1707018620
 H       -12.6220333621        6.0223914445       -3.5201475258
 H       -12.8587852492        7.5734142724       -4.1262770132
 H       -12.8337177794        7.3592721616       -2.4460074610
 H        -8.3279122255        3.7751218798       -8.3796468761
 H        -9.1498339325        4.0959810348       -6.7574228262
 H        -8.3202818564        2.6172399625       -7.1706361850
 H        -5.9194526110        2.5863001548       -6.0813453575
 H        -7.1114919670        2.9911167384       -4.8912431273
 H        -5.5919789636        4.0222285288       -5.1470842565
 Na      -10.0310523480        3.3650639187        2.4351381134
