117

 C        -5.6993171426       -6.3314204173        2.5133472615
 C        -6.1331534525       -5.0427080329        3.2137153573
 O        -6.0015758681       -3.9314269087        2.7640078723
 C        -7.1198357289       -5.3523854466        4.3630289955
 C        -7.1582338364       -4.0485617681        5.3528345351
 O        -6.9475165589       -4.1966476541        6.5076210111
 C        -7.8840382904       -2.8783519331        4.6743697166
 C        -7.8173920342       -1.5132033198        5.4582214311
 C        -8.2034603652       -0.2778214115        4.5083965372
 O        -8.3434125610       -0.4313036052        3.3324980346
 C        -8.5905816898        1.1268849017        5.2109113390
 C        -8.3918222917        2.2262579191        4.1430784011
 O        -7.3436313849        2.8320022068        3.9751745863
 C        -9.5576617800        2.5858778816        3.1832482969
 C        -8.9479145702        2.5005195671        1.7744521065
 C        -9.7823793789        3.2126746907        0.6524840665
 O        -9.4990365394        4.3243890698        0.2562743050
 C       -10.9772954698        2.3803327163       -0.0527789177
 C       -12.4039581300        2.8587540633        0.4968374510
 O       -12.4996612316        3.2206865788        1.6770033085
 C       -13.6885775048        2.5136514948       -0.4127618537
 C       -14.3813620761        3.7203560424       -1.0112867075
 C       -13.5199415934        4.9325091597       -1.2008522091
 O       -12.4339675243        5.0547753156       -0.6184685292
 C       -13.8924574441        6.0713021299       -2.0872766953
 C       -12.9695052210        6.1415186637       -3.2967342401
 O       -11.7857399901        5.7865742566       -3.2697725431
 C       -13.5433657818        6.5313118573       -4.7051672897
 C       -12.4356774115        7.1109097865       -5.5415227055
 C       -12.0261480950        8.5994269391       -5.0229124474
 O       -12.7121447104        9.1927733821       -4.1634274149
 C       -10.8221165081        9.2421517431       -5.6590716422
 C        -9.6972087016        9.1625801409       -4.5314127635
 O        -8.8982647805        8.2436622908       -4.5339484326
 C        -9.7268687335       10.3080288191       -3.5360870288
 C        -8.5726305737       10.1989976489       -2.5461410567
 C        -8.6934730609        8.8575783250       -1.7266909543
 O        -9.7734331023        8.4252196380       -1.4724718475
 C        -7.4222557137        7.8942446534       -1.4909211174
 C        -7.3636259150        6.6229088693       -2.5251347603
 O        -7.9557923863        5.6427381038       -2.1673751269
 C        -6.4379426755        6.6982478462       -3.7333825470
 C        -6.0722710977        8.7386819147       -1.6114367487
 C        -7.4748697881        7.3541214323       -0.0636935720
 C       -10.3526902796        8.4970484973       -6.9690171980
 C       -11.1982729356       10.7045734004       -6.0469076088
 C       -15.4323733026        5.9473131368       -2.4817517236
 C       -13.5763161551        7.3963243988       -1.3270441640
 C       -10.8684327932        2.3877450400       -1.6053825454
 C       -11.0320149331        0.8695907748        0.4135331905
 C       -10.0090664212        0.9286081479        5.8568252062
 C        -7.6099948799        1.4782336257        6.3462462376
 C        -8.5218998115       -5.6430738624        3.7514229688
 C        -6.7174445539       -6.4873505881        5.3509567961
 H        -6.4089801580       -7.1458615005        2.8087386953
 H        -4.6775356673       -6.6185182112        2.8736858869
 H        -5.6938623101       -6.2790871543        1.4613734754
 H        -8.9481845979       -3.3201224832        4.7502632046
 H        -7.7134457360       -2.7305820461        3.5526307766
 H        -6.9161284631       -1.4091337215        6.0229557030
 H        -8.5663134683       -1.3926920127        6.3496514846
 H        -9.8247658220        3.6230199993        3.4203249785
 H       -10.4809142124        1.9050771883        3.2367163182
 H        -8.7205520993        1.5043138798        1.4780284983
 H        -8.0131112888        3.0106608311        1.8308964403
 H       -14.3429610885        1.9503724258        0.2587537720
 H       -13.4514491271        1.8169812179       -1.2181102768
 H       -15.2714451628        3.8846787140       -0.5207207682
 H       -14.6202641796        3.5070758426       -2.0792973415
 H       -14.3366802566        7.2835211382       -4.5215187471
 H       -14.0261229847        5.6779125147       -5.2298459043
 H       -12.5033485189        7.2771681513       -6.6654500649
 H       -11.5394772200        6.4427347419       -5.4374769520
 H       -10.6527459914       10.2443419790       -3.0166684287
 H        -9.8033272494       11.2954028306       -4.1193971275
 H        -8.5019815247       11.1456735113       -1.9850821909
 H        -7.5831482562       10.2062319597       -3.1258057281
 H        -7.0384908662        7.3436459078       -4.4974568122
 H        -6.2711291946        5.7020174625       -4.1175899233
 H        -5.4770800071        7.0345447885       -3.4552330264
 H        -6.2874236630        9.7442923803       -1.2251313644
 H        -5.6900876356        8.9032802198       -2.6092629355
 H        -5.2436964303        8.2891396561       -1.0758128564
 H        -6.9201855411        7.8770756569        0.6591745745
 H        -6.9591343484        6.4495151937       -0.1558238939
 H        -8.4765560567        7.2112712926        0.4283197851
 H        -9.2925632578        8.6594510767       -7.0019068426
 H       -10.8317058358        8.7875341117       -7.9212909353
 H       -10.4819941036        7.4135826763       -6.8020900836
 H       -10.3603982096       11.2511209536       -6.3456318216
 H       -11.8016613547       11.2631112428       -5.2539007906
 H       -11.8459075334       10.6539319307       -6.9514438404
 H       -15.9835055024        5.6614675153       -1.5710902364
 H       -15.5259541313        5.2260278306       -3.2821008511
 H       -15.8314434254        6.9178704072       -2.9599783912
 H       -13.9473860996        7.3777566070       -0.2587358658
 H       -14.0017028540        8.3018031262       -1.8550302010
 H       -12.4274624651        7.5674317587       -1.2888893869
 H       -11.5547565277        1.7383241366       -2.0097797086
 H        -9.8343573616        2.0063503297       -1.7976084819
 H       -11.0027897186        3.3614203963       -2.0735994565
 H       -11.0350661255        0.7248948089        1.4677813845
 H       -10.3090825265        0.2116988479        0.0478622629
 H       -11.9201619356        0.4020429181       -0.0117041598
 H        -9.8563068613        0.5816921743        6.8496197727
 H       -10.5184499700        0.1410953334        5.3070374603
 H       -10.6305281894        1.8364364399        5.8795287694
 H        -7.7444400485        0.8266435141        7.2165500346
 H        -7.8127673225        2.4760034871        6.8049375813
 H        -6.5602669034        1.4057791289        6.1032684028
 H        -8.8502351888       -4.7675879263        3.2402661311
 H        -9.2813844661       -5.8868630736        4.5375012813
 H        -8.5730952940       -6.5636852974        3.2254488877
 H        -5.7084980029       -6.2478963216        5.6463284092
 H        -6.6781466411       -7.4769461908        4.8660095296
 H        -7.2673258074       -6.3906061230        6.2945351036
 Na      -10.2573003895        5.9488740913       -1.1375118718
