117

 C        -4.6950174692        3.8861854986       -8.5586024114
 C        -6.1204302480        4.4539303323       -8.0316048571
 O        -6.6987942446        5.3372121876       -8.5717006532
 C        -6.7885163865        3.8680682925       -6.7828016026
 C        -7.3359700171        4.9965741018       -5.8261894575
 O        -7.6033166626        4.6530169666       -4.6739934863
 C        -7.6921088834        6.4058921380       -6.3592978416
 C        -8.3848872652        7.2600788860       -5.2950215307
 C        -9.8111175722        6.8199487803       -5.0554629795
 O       -10.5088702690        6.2643714825       -5.9445247669
 C       -10.5705154780        7.3412973956       -3.7208762567
 C        -9.8022401412        6.5766087753       -2.6155961153
 O        -9.1690076603        7.1407959888       -1.7456775406
 C       -10.1320287179        5.0709970268       -2.4823124359
 C        -8.9977315317        4.2757841283       -1.7969679082
 C        -8.8429529031        4.6029688904       -0.3763343100
 O        -9.7849863797        4.4697150155        0.3931414491
 C        -7.3641632640        4.7946260469        0.2631753193
 C        -7.1250273113        3.3503161027        0.8287876380
 O        -7.6395170799        3.0867465862        1.9026664482
 C        -6.3490061072        2.2441806833        0.0894385364
 C        -6.6731839836        0.8115290706        0.5103652159
 C        -8.1129457402        0.4408732979        0.2123588088
 O        -8.7521309377        0.9177878014       -0.7227614895
 C        -8.8298052765       -0.5917610068        1.1885116911
 C        -9.8837172508        0.1778655051        1.9629056256
 O        -9.6085587865        0.9027965403        2.9304889153
 C       -11.1838047056        0.3205531166        1.1601126044
 C       -12.4034460198        0.6878219335        1.9993733613
 C       -12.9278110083        2.1328553124        1.7017246657
 O       -12.1957187501        2.9694303947        1.2302513258
 C       -14.3863159935        2.5049886479        1.9616139659
 C       -14.5215486653        2.4311471965        3.5841939874
 O       -15.0630380222        1.5625640834        4.2222681326
 C       -14.0911796573        3.7395780016        4.3527002093
 C       -13.3060755679        3.4326985967        5.6657271774
 C       -11.8515255513        3.2236531206        5.2356154497
 O       -11.6514405504        2.6958888178        4.1793310987
 C       -10.6323522978        3.8603849169        6.0700285402
 C        -9.9444273980        4.9714237021        5.1907613752
 O        -9.3948186569        4.6773413932        4.1294932916
 C       -10.0850148930        6.3910051661        5.8147058715
 C       -11.0015238012        4.2244216445        7.5242497377
 C        -9.5847355734        2.7977823452        6.2193479328
 C       -14.7350627514        3.9348409842        1.4596773111
 C       -15.4027736697        1.4089890485        1.4046464322
 C        -9.3954893011       -1.7730007257        0.3529142045
 C        -7.7192451245       -1.1545376574        2.2157837450
 C        -6.2968440527        5.1850695303       -0.8199865441
 C        -7.3772868987        5.8586493654        1.3655446226
 C       -10.4596588643        8.8363995615       -3.6916090183
 C       -12.0519923321        6.8596799590       -3.7707147534
 C        -7.9917126776        2.9810562455       -7.2467119773
 C        -5.7680698682        3.0127548063       -5.9597280529
 H        -4.8442445161        2.7912542303       -8.7456531171
 H        -3.9988582827        3.9645919340       -7.7053090182
 H        -4.3740369989        4.5137996823       -9.3852459791
 H        -8.3426872463        6.3475931650       -7.1983339154
 H        -6.7559811398        6.8434589129       -6.7080651506
 H        -8.4464050989        8.2226336692       -5.7080631352
 H        -7.8588245275        7.3178753650       -4.3549693186
 H       -10.3979432874        4.6404292135       -3.4481366268
 H       -10.9351850070        5.1033678922       -1.8000175062
 H        -8.0391620223        4.5468497217       -2.3370333519
 H        -9.3656159711        3.2636276720       -1.8018166013
 H        -5.2908000094        2.4633345222       -0.0425793524
 H        -6.6366573471        2.3465105893       -0.9098118457
 H        -6.3865059101        0.5881231393        1.5713557575
 H        -6.1673143251        0.0051240024       -0.0639657038
 H       -11.3528165650       -0.6056836454        0.5436264031
 H       -11.0466398648        1.1794426620        0.4808435545
 H       -12.0357518610        0.5868694036        3.0724766965
 H       -13.1306748495       -0.0892070377        1.9210291594
 H       -14.9911066555        4.1423475396        4.7149584307
 H       -13.5010611425        4.4375831154        3.7467079753
 H       -13.8220397740        2.6603390505        6.3313327870
 H       -13.1804972133        4.3114834637        6.2798686139
 H       -11.1388483150        6.4916934959        6.1395034411
 H        -9.9311130954        7.2333749625        5.1076051212
 H        -9.5525656480        6.4830505914        6.6994495970
 H       -11.4603910607        3.3798059535        7.9917876040
 H       -11.6372505014        5.0745638812        7.7393383465
 H       -10.1320677976        4.3865923554        8.2126977262
 H        -8.5776240393        3.2198221293        6.3503197559
 H        -9.6027570133        2.1663696840        5.3320823031
 H        -9.8290940102        2.1556752828        7.0670311282
 H       -15.7954432490        4.2559775312        1.5693673727
 H       -14.5114401165        3.9500729501        0.3853825461
 H       -14.0820091512        4.7112640363        1.8766266243
 H       -16.4686196009        1.7480514810        1.5409287805
 H       -15.3811418533        0.5514738056        1.9861768387
 H       -15.2610452359        1.1286421576        0.3547648363
 H        -8.5467519706       -2.4956518823        0.3379956097
 H        -9.5811403178       -1.3688718776       -0.6748915717
 H       -10.1955935016       -2.3113302290        0.7925598049
 H        -7.5348121802       -0.3824949167        3.0083984426
 H        -6.7827336272       -1.4857216056        1.7166946836
 H        -8.0603633928       -2.0475205114        2.6562454577
 H        -5.3809567934        5.4796096448       -0.4118268477
 H        -6.6688738614        5.9523955556       -1.4787882672
 H        -6.0107319760        4.2979962872       -1.4485594759
 H        -6.3766922304        6.0231242268        1.7880879689
 H        -7.9905626491        5.4671220868        2.1808274433
 H        -7.8152804812        6.8101173357        0.9650877902
 H        -9.4548917030        9.1861628984       -3.6550714304
 H       -10.9795525368        9.1620651640       -2.8002883607
 H       -10.9243964797        9.2106573656       -4.5459395934
 H       -12.2098675300        5.9347268680       -4.2928985438
 H       -12.6753491259        7.5973425093       -4.2745807212
 H       -12.5227097028        6.8372069421       -2.8169360355
 H        -8.8660699791        3.5796210711       -7.4057190112
 H        -8.2134180847        2.1930687131       -6.5342941867
 H        -7.7984432259        2.4072415990       -8.1456694329
 H        -5.4784601392        2.0767788358       -6.4162657841
 H        -6.2459661565        2.8340469342       -4.9857140342
 H        -4.8918674922        3.6228000641       -5.7723672447
 Na      -10.1751171820        3.1504602330        2.5126423366
