117

 C        -4.7069919549        3.8421911708       -8.3062989559
 C        -6.0263158096        4.4994784874       -7.9757729971
 O        -6.3811003951        5.5190497818       -8.5753142843
 C        -6.8754535021        4.0445141404       -6.7195463953
 C        -7.2146636306        5.2750031917       -5.8142312294
 O        -6.8052044926        5.4704433573       -4.7029072872
 C        -8.1126803723        6.2730274062       -6.4546310602
 C        -8.7434944787        7.2541171238       -5.3964472177
 C       -10.1366894253        6.7590290974       -4.9661347888
 O       -10.7617031247        5.9656096381       -5.5593423059
 C       -10.7694502854        7.3107617260       -3.6447813660
 C        -9.9690095738        6.5204492146       -2.5466718573
 O        -9.0313927505        6.9887475212       -1.9317399197
 C       -10.2260736762        5.0335722210       -2.4609336740
 C        -8.9439327950        4.4363377718       -1.7516804909
 C        -8.9029537178        4.6292955334       -0.2030529583
 O        -9.8838989080        4.5461293241        0.4856302359
 C        -7.4148491327        4.7632076651        0.5276865334
 C        -7.0639040235        3.3712193970        1.0435895534
 O        -7.4844019552        2.9581283372        2.1292119886
 C        -6.2655010651        2.4365476584        0.1214229270
 C        -6.5238294162        1.0070507932        0.5988067593
 C        -7.9221238232        0.5590561528        0.1137048546
 O        -8.4734274575        0.9806546923       -0.8750061618
 C        -8.6420151189       -0.5994856975        0.9025671232
 C        -9.8648936012        0.1922291164        1.4866917860
 O        -9.7286608034        0.6032634342        2.6102520639
 C       -11.1890689413        0.3144170911        0.7180230287
 C       -12.3608153961        0.6753567619        1.6454232728
 C       -12.7841884250        2.1273424514        1.6976587652
 O       -12.0083100152        3.0621497996        1.5525122058
 C       -14.3215473143        2.4684188400        2.0223099153
 C       -14.3151398175        2.3018877967        3.5898491569
 O       -14.4922910853        1.2208179415        4.1246555618
 C       -14.2650933902        3.5230544645        4.4174661017
 C       -13.4212537093        3.2970452615        5.6506635396
 C       -11.9024454600        3.1525867415        5.1744611670
 O       -11.7220196062        2.7568224632        4.0432510323
 C       -10.6977871561        3.7246974590        6.0473460308
 C       -10.0920733351        4.8360725955        5.1911269885
 O        -9.8228364481        4.6189747873        4.0127308170
 C        -9.9363126189        6.3014468131        5.7009780788
 C       -11.0965461727        4.2857309460        7.4265136308
 C        -9.6361802341        2.4895704081        6.0661667540
 C       -14.6692377731        3.9979101582        1.4994082498
 C       -15.3393795078        1.4662056250        1.4779035032
 C        -9.1025369882       -1.6728095877       -0.1692798533
 C        -7.9009690200       -1.2815715352        1.9860169108
 C        -6.3704213256        5.4467984403       -0.3105973946
 C        -7.6625631089        5.5902032710        1.7691667540
 C       -10.5851981671        8.8951180858       -3.4700459318
 C       -12.2778442736        6.9860834464       -3.6585161537
 C        -8.2151451647        3.3434511146       -7.1266955176
 C        -6.0765198832        3.0397861339       -5.8907558032
 H        -4.8149428475        2.8045416335       -8.1017636103
 H        -3.9664539549        4.2773092320       -7.5826598313
 H        -4.3845639034        4.0775578806       -9.3439174073
 H        -8.9237693369        5.7430612291       -6.9873833385
 H        -7.4882415741        6.7915621195       -7.1370041682
 H        -8.8232232961        8.2605973202       -5.7975291712
 H        -8.1012899544        7.3543665921       -4.5818817991
 H       -10.4547502915        4.6749536424       -3.4368488650
 H       -11.0970912109        4.9091266154       -1.8101221705
 H        -8.0992900443        4.8121979254       -2.2323294068
 H        -8.9219579562        3.3039907349       -1.8160739273
 H        -5.2281367598        2.6764307155        0.3084942380
 H        -6.3865147686        2.5357293760       -0.9516174857
 H        -6.5867169614        1.0205904187        1.6692721205
 H        -5.6589225688        0.2600370970        0.3954159238
 H       -11.4497585610       -0.6112835215        0.1949464641
 H       -10.9970138747        1.1893700387       -0.0006340883
 H       -12.1056326795        0.3992078578        2.6324316350
 H       -13.1729304514        0.0197940234        1.3071369901
 H       -15.2728933883        3.7625706554        4.7480450813
 H       -13.9685490174        4.3904632578        3.8676573645
 H       -13.8097783103        2.4416154994        6.2827223360
 H       -13.4895395416        4.1752824280        6.2863899403
 H       -10.9738536296        6.5368434571        5.8676280160
 H        -9.4066210199        6.9603645843        5.0604290918
 H        -9.5145254304        6.4351733426        6.7332987639
 H       -11.6052203259        3.5334861490        8.0502423580
 H       -11.8163774557        5.0999001462        7.4127051210
 H       -10.2350061593        4.6365436498        7.9257107784
 H        -8.6565732039        2.7902383335        6.4395370149
 H        -9.6487622957        2.0494540157        5.0707999179
 H       -10.0029001492        1.7707391283        6.8105448292
 H       -15.4848728934        4.4310120689        2.0684426262
 H       -15.0740291466        3.9633331027        0.4583698437
 H       -13.7942881031        4.6736141275        1.4650909860
 H       -16.2831560473        1.9321821427        1.6131819197
 H       -15.2316744666        0.4784104194        1.9882524405
 H       -15.2186915892        1.2258963011        0.4432536590
 H        -8.2182111147       -2.2070678334       -0.4553613435
 H        -9.5892784663       -1.2042354203       -1.0089245864
 H        -9.6413676966       -2.5471478866        0.2883793193
 H        -7.8850257970       -0.6838724766        2.8741857412
 H        -6.8935136008       -1.5077616617        1.5932170675
 H        -8.4812736000       -2.1617862386        2.3090199653
 H        -5.5416090891        5.7267826348        0.4124546358
 H        -6.7148800580        6.3918610531       -0.7556286172
 H        -5.9371804265        4.8679886560       -1.0860166564
 H        -6.7771701678        5.4144731418        2.4426710650
 H        -8.5949076189        5.2954647662        2.2846078578
 H        -7.6668143260        6.6586573029        1.5317495314
 H        -9.5852876111        9.1670903946       -3.7745710207
 H       -10.6414927635        9.1852679772       -2.4708455204
 H       -11.3541834977        9.4216302777       -4.0343249915
 H       -12.4359654052        5.9471669343       -3.4280157085
 H       -12.6313660023        7.1123690209       -4.6178686798
 H       -12.9399683524        7.4256595937       -2.9325717800
 H        -8.6933058886        3.7142018345       -8.0506169670
 H        -8.9894307938        3.5258017566       -6.3941225569
 H        -8.0101988862        2.2905659858       -7.1748025838
 H        -5.5626506631        2.2932820464       -6.5214379294
 H        -6.7620607900        2.5626197129       -5.2056546660
 H        -5.3683869510        3.5896442105       -5.2384753465
 Na       -9.9570986592        2.9619684211        2.4318094973
