117

 C        -4.7411046025        3.9611813141       -8.6342719981
 C        -6.1479613442        4.4016099153       -8.0850039409
 O        -6.8798603406        5.1623807704       -8.7196193658
 C        -6.7422343850        3.7312271147       -6.8344369091
 C        -7.4423257718        4.8084311612       -5.8779095701
 O        -7.9989314394        4.3706533319       -4.8623496438
 C        -7.3460092320        6.3698676033       -6.1116190436
 C        -8.1551696711        7.2175525899       -5.0851974523
 C        -9.6381015218        6.9112974797       -5.1275662411
 O       -10.1997037846        6.2635339800       -6.0042492081
 C       -10.5388362051        7.3538769830       -3.7356447397
 C       -10.0217483675        6.4701503956       -2.6034146819
 O        -9.0501631709        6.7905048592       -1.9532531462
 C       -10.3902434636        4.9578148860       -2.6545875271
 C        -9.2038452974        4.1701558719       -2.0635483742
 C        -8.9687256728        4.4803089031       -0.6158649490
 O        -9.8596965042        4.6704964796        0.1852296402
 C        -7.4320243161        4.4964912405       -0.0301235781
 C        -7.1933588769        3.1032227892        0.6424671816
 O        -7.6952411424        2.7424788185        1.6934851349
 C        -6.2185977683        2.1377675808       -0.0357926142
 C        -6.4154077877        0.6680974705        0.5069377500
 C        -7.8994688359        0.2854601034        0.4466077932
 O        -8.6069455221        0.8553158564       -0.4179101302
 C        -8.7390039072       -0.6765608955        1.4115000316
 C       -10.0110286830        0.1589191932        1.8692738719
 O        -9.8254438049        0.8711454952        2.8549343929
 C       -11.4321444496        0.1995694322        1.1279952482
 C       -12.4811953867        0.7317749014        2.0791741868
 C       -12.9240857523        2.1844866732        1.8904728041
 O       -12.1676586636        3.1279158191        1.6843824210
 C       -14.4640181201        2.4617411924        2.1086753527
 C       -14.4674863777        2.6413043554        3.6384810257
 O       -14.8106936028        1.7585595011        4.3705860601
 C       -14.2166525780        4.0862836392        4.2416407416
 C       -13.3954816351        3.8774285362        5.5636788346
 C       -11.9104675143        3.4580568781        5.2454631779
 O       -11.5970151241        2.9274147760        4.1944802196
 C       -10.7229036756        4.0063858182        6.1225656069
 C       -10.1797887873        5.2793584096        5.4100204075
 O        -9.7501538312        5.1359477724        4.2687661067
 C        -9.9754571424        6.5396188041        6.2527856327
 C       -11.1550874817        4.1097109263        7.5546776064
 C        -9.5882156451        2.8635071341        6.1042359339
 C       -14.7972393688        3.8636205653        1.4251227320
 C       -15.4499109113        1.2892383704        1.7441516915
 C        -9.1556597679       -1.9514856316        0.5064837963
 C        -7.9680279589       -1.1459862874        2.6175700176
 C        -6.3412491821        4.9177851866       -1.0111238040
 C        -7.4256160446        5.5821940675        1.1002043535
 C       -10.2225981480        8.9385071865       -3.5077150313
 C       -12.0426006090        7.1942868448       -3.9990837953
 C        -7.7962007395        2.7860361778       -7.4828468186
 C        -5.7742165950        3.0237574549       -5.9674165251
 H        -4.7677220516        2.8083121418       -8.8449961963
 H        -4.0060729816        4.2042275598       -7.8404798708
 H        -4.5980996321        4.4915638491       -9.5872069587
 H        -7.5074372435        6.5944994495       -7.1593938957
 H        -6.2470287973        6.5436838306       -5.9603876209
 H        -7.9842641683        8.2372449685       -5.2846654441
 H        -7.7167998861        6.9862726056       -4.0956473444
 H       -10.6152362097        4.7445241839       -3.7177970660
 H       -11.2092482887        4.7399849365       -2.0256581750
 H        -8.2940093581        4.4994825610       -2.6489879876
 H        -9.4696049520        3.1576671440       -2.0429069094
 H        -5.1559957019        2.4921034890        0.0419677538
 H        -6.3077474569        2.2044097778       -1.0958022219
 H        -6.2265419294        0.6259506748        1.6482646838
 H        -5.7990839158       -0.0972408056        0.0143162215
 H       -11.7114268621       -0.8863350706        0.7942853602
 H       -11.3221035899        0.7622177019        0.1398894954
 H       -12.1937172995        0.5485059806        3.1018220348
 H       -13.2596505449        0.0603681463        1.9926969300
 H       -15.2094492086        4.4599523354        4.5265609972
 H       -13.6040545705        4.7463863874        3.5539065465
 H       -13.7682185090        3.1729502863        6.3612059752
 H       -13.2582387965        4.8479750958        6.0798060202
 H       -10.8141231721        7.2765120692        6.2978742999
 H        -9.2696897463        7.1611245848        5.6432727790
 H        -9.5678641168        6.3334414326        7.2133472458
 H       -11.5194583512        3.1932866024        7.9994022597
 H       -11.9272583470        4.8948718170        7.6615652284
 H       -10.3496215164        4.3521851747        8.3078455870
 H        -8.8948291320        2.9932535530        6.9244887497
 H        -8.9339352107        2.9318503010        5.2436981903
 H       -10.0337497297        1.8866872420        6.1384753400
 H       -15.4464440632        4.5085032075        2.0338864374
 H       -15.3078076955        3.6066448929        0.5305710800
 H       -13.9562078907        4.4728931971        1.1572719038
 H       -16.5305703379        1.5495338298        1.7767611343
 H       -15.3827749258        0.5552741510        2.5159228657
 H       -15.3510268037        0.8322743871        0.7557997080
 H        -8.1569624374       -2.2836007787        0.2000284522
 H        -9.5987472274       -1.6969213942       -0.4708188399
 H        -9.7915932319       -2.5959080282        1.0604419431
 H        -7.7331519369       -0.2607968274        3.2238458949
 H        -7.0385575336       -1.6580140024        2.4177397918
 H        -8.5891083990       -1.8229821568        3.1537999922
 H        -5.4048748435        4.9688094714       -0.5771857587
 H        -6.6088147254        5.8521096849       -1.4248283467
 H        -6.3424131998        4.1976911311       -1.8477275064
 H        -6.5332404906        5.5445951368        1.6623614515
 H        -8.2891499485        5.5024872162        1.7402005920
 H        -7.4745000337        6.5536415992        0.6111599938
 H        -9.1774799462        9.0640799360       -3.3031198225
 H       -10.8397439451        9.2997744885       -2.6615785864
 H       -10.3675969821        9.4928743855       -4.3928313463
 H       -12.2287336869        6.1413909355       -4.2113197978
 H       -12.3960530673        7.6826044916       -4.9725375298
 H       -12.6861943264        7.5877034607       -3.2176598887
 H        -8.2112114590        3.1515368433       -8.3974911192
 H        -8.5976673843        2.4885975686       -6.8026461679
 H        -7.3533509736        1.8483177415       -7.8643887347
 H        -5.4559668115        2.0765277029       -6.3401901641
 H        -6.2879855309        2.7867105287       -5.0290715140
 H        -4.9048038923        3.6230196746       -5.8141675398
 Na       -9.7367189774        3.5688864428        2.4176622753
