117

 C        -4.8675198304        4.1597018864       -8.9088456883
 C        -6.3616364321        4.2490189655       -8.3203946351
 O        -7.1287982975        5.1071828190       -8.7733989374
 C        -6.7283804640        3.4034863174       -7.0233339419
 C        -7.4767852475        4.3609608742       -6.0101193561
 O        -7.9767503002        3.8502047077       -5.0310318305
 C        -7.3435627246        5.9067022529       -6.2468075952
 C        -7.7867315961        6.7360847024       -5.0035653775
 C        -9.3313099062        6.9986410303       -5.0929871826
 O        -9.9214111450        6.7324540579       -6.0807426708
 C       -10.1006866159        7.4744953219       -3.7827544495
 C        -9.7749530617        6.4373989874       -2.5857714533
 O        -9.1902957570        6.7503305004       -1.5902340139
 C       -10.2983250684        4.9821129227       -2.9104646504
 C        -9.4075656578        3.8439837888       -2.3295921271
 C        -9.1019330889        3.9972651152       -0.8185640733
 O        -9.9815796861        4.0718769452       -0.0176185181
 C        -7.5114199819        4.1246874846       -0.3006742562
 C        -7.4391880571        2.9090825106        0.6036368511
 O        -7.9064554631        2.9731553173        1.7165794828
 C        -6.7882704974        1.5465066460        0.1977787907
 C        -6.8964230333        0.4248804261        1.3411163037
 C        -8.1106761327       -0.4562070396        1.0988065875
 O        -8.4921201455       -0.7304707917       -0.0252288799
 C        -9.0859283128       -0.7897207416        2.2985278724
 C        -9.9622291565        0.5402997416        2.4005453363
 O        -9.6165010951        1.4473083173        3.1560106136
 C       -11.1101151783        0.7813636868        1.4041370946
 C       -12.4356592876        0.9678248342        2.2501488457
 C       -13.1540243852        2.3035673456        1.8994090665
 O       -12.5877395056        3.1789502015        1.2719078430
 C       -14.6422798785        2.5278033080        2.3581726687
 C       -14.4833896129        2.9073034003        3.8354247737
 O       -14.2928547966        2.0071933705        4.6197990206
 C       -14.3805388555        4.3538858069        4.3758658123
 C       -13.2429996423        4.4554957812        5.4360527912
 C       -11.8462032733        4.4501496938        4.7879580848
 O       -11.7324304765        4.2020691120        3.6354747850
 C       -10.6157440494        4.7338832899        5.6917466310
 C        -9.4969839468        5.4958544638        4.9004166637
 O        -9.0749175253        5.0677206397        3.8254947444
 C        -9.0844201060        6.8781591610        5.4277180865
 C       -10.9253079005        5.4415667783        7.0619392754
 C       -10.1808229354        3.2448527947        5.9257286637
 C       -15.3072436275        3.6732973007        1.5531837705
 C       -15.5085777349        1.1693243412        2.2511601687
 C       -10.1075371541       -1.8855012909        1.8651611665
 C        -8.2745009178       -1.1672458413        3.5397136739
 C        -6.5389174059        4.0823651438       -1.4936580062
 C        -7.2668979986        5.3445636072        0.5713702604
 C        -9.5169534708        8.8207230164       -3.4783002137
 C       -11.6954455571        7.4280117716       -4.0726530322
 C        -7.5874070362        2.1293534644       -7.2939214205
 C        -5.4373819019        2.8810939727       -6.3904179749
 H        -4.5552454853        3.1217339557       -8.9445781248
 H        -4.2841397525        4.6352607052       -8.1978452019
 H        -4.8275280756        4.7298884186       -9.8591134543
 H        -8.0468444671        6.1806915166       -7.1112148416
 H        -6.2846858061        5.9617617928       -6.5308525625
 H        -7.0924318317        7.6267396624       -4.9767205167
 H        -7.4989647540        6.1680030003       -4.1186953916
 H       -10.2111250190        4.9618066712       -4.0009063728
 H       -11.3617002277        4.8779762827       -2.6343394757
 H        -8.4747904377        3.8917005936       -3.0294756630
 H        -9.9470349075        2.9023935912       -2.5107432038
 H        -5.7263924647        1.6011622669       -0.1372451164
 H        -7.4748862314        1.1321230003       -0.5804761570
 H        -7.0747717872        0.7903565528        2.3701318144
 H        -5.9338895804       -0.1575493940        1.4298750330
 H       -11.1703250499        0.0196714810        0.6572420731
 H       -10.9556420320        1.7950369142        0.9301817527
 H       -12.1489078362        1.0517869701        3.3050931749
 H       -13.0133094170        0.1175543817        2.0466697388
 H       -15.3854677317        4.5295141250        4.8104135900
 H       -14.3368970018        5.0868493375        3.5590108071
 H       -13.2342745943        3.6166860385        6.1979436682
 H       -13.5066620125        5.3261435398        6.0191967382
 H       -10.0447435886        7.3673206150        5.6496740514
 H        -8.3990230105        7.3432696978        4.7095521188
 H        -8.6806153891        6.8420883797        6.3876759506
 H       -11.4160746393        4.7378957060        7.6598288228
 H       -11.5261218866        6.2719509095        6.8277301695
 H        -9.9912879278        5.6769841993        7.5814166811
 H        -9.2451237076        3.0943220006        6.4822046671
 H       -10.1087055961        2.6124176111        5.0275417040
 H       -10.9544048965        2.7496508304        6.5215824525
 H       -16.0494878963        4.1006910098        2.2530747095
 H       -15.8668080965        3.1489934664        0.7537641252
 H       -14.6708865373        4.4190536534        1.0542211662
 H       -16.6337972735        1.2600143912        2.3789122147
 H       -15.2682087723        0.5093620420        3.0411960261
 H       -15.3537718175        0.7770547838        1.2391599318
 H        -9.9044690648       -2.8537301658        2.3580806035
 H       -10.0273314354       -2.1267312275        0.7668508569
 H       -11.0887092716       -1.6927618991        2.2124623952
 H        -7.6742715155       -0.3006361064        3.9217527340
 H        -7.5410194336       -1.9848153468        3.3751540741
 H        -8.8188431213       -1.5196639181        4.3664657951
 H        -5.5198406037        4.0572385245       -1.1323417499
 H        -6.6812832037        4.9693830890       -2.1416307563
 H        -6.7209366656        3.0968561013       -2.0687438292
 H        -6.2669710979        5.3421634796        1.0913136792
 H        -8.0537558978        5.5341384127        1.3129876385
 H        -7.3257963861        6.1890213583       -0.1599943570
 H        -8.4567969667        8.9403481923       -3.7222376744
 H        -9.7190484564        9.0131604635       -2.3783399120
 H        -9.9880582704        9.5943983027       -4.0684603209
 H       -12.0859037541        6.5227336027       -3.7192198386
 H       -11.8496833946        7.4998771776       -5.1442182874
 H       -12.0337810676        8.2996164561       -3.6009641442
 H        -8.0773137199        2.2067578226       -8.2506141681
 H        -8.3585135440        1.9612247685       -6.5168021742
 H        -7.0672754889        1.1673482620       -7.3497187227
 H        -4.7645434341        2.4252416707       -7.0997399138
 H        -5.6532837955        2.1255939441       -5.6661703792
 H        -4.8539592476        3.7071660427       -5.9914235815
 Na       -9.9954200944        3.6650802760        2.2971575838
