117

 C        -5.2587479832        3.7061587132       -9.6794730877
 C        -6.4722471728        3.9947449340       -8.7295098101
 O        -7.4463275186        4.5684597241       -9.1751519779
 C        -6.4148645471        3.5577691054       -7.1780611250
 C        -7.1321498228        4.6304049102       -6.2117546932
 O        -7.5060780685        4.2736032207       -5.0995942741
 C        -7.3616603418        6.1277020319       -6.7067299641
 C        -7.8136182210        7.0934284269       -5.5594046369
 C        -9.3836474901        6.7196189768       -5.1999774786
 O       -10.0684864937        5.9074469452       -5.7800487456
 C        -9.9046913679        7.2847985376       -3.8812745145
 C        -9.4424185552        6.1807760656       -2.8310010136
 O        -8.4974541757        6.4324801637       -2.1314323714
 C       -10.0406489538        4.7454163394       -2.8403491603
 C        -9.0747930236        3.7180807060       -2.2657604508
 C        -8.8725319006        3.7974512127       -0.7577368424
 O        -9.7410136870        4.1826473533       -0.0222477193
 C        -7.5181157838        3.4657624741       -0.1553141447
 C        -7.7640033935        2.1146599431        0.6777938128
 O        -8.6316332523        2.1177907501        1.5160947164
 C        -6.8755049045        0.8718780438        0.4532549562
 C        -7.1683024377       -0.2286305069        1.4068288496
 C        -8.7214656473       -0.6123065704        1.5040356210
 O        -9.2418715926       -0.9602488403        0.4622545901
 C        -9.4886765469       -0.5998254857        2.8514347137
 C       -10.6914724431        0.3564115629        2.6617044612
 O       -10.8897141509        1.3676763573        3.2935051393
 C       -11.7061442154        0.1009717661        1.5137995370
 C       -13.0915924262        0.5609815561        1.8187471858
 C       -13.2853023826        2.0706982904        1.9169758697
 O       -12.5326617246        2.8254639322        1.3565203291
 C       -14.5645517199        2.6120344060        2.6505876646
 C       -13.9835264252        3.2809882544        3.9637228549
 O       -13.3892783972        2.5934715505        4.7620668966
 C       -14.2257656890        4.7780029848        4.2243728928
 C       -13.2405666468        5.3297906185        5.2243424602
 C       -11.8287911455        5.3505172566        4.5324328144
 O       -11.6760397903        4.8402729414        3.4480525917
 C       -10.4802552385        5.5438684702        5.4309231866
 C        -9.3732826768        6.0655960122        4.5002872392
 O        -9.0052642148        5.4831045882        3.5190480947
 C        -8.6791439542        7.3737428334        4.9797385464
 C       -10.8441591219        6.3947738334        6.6277885450
 C       -10.2077961579        4.0625641631        5.8029515707
 C       -15.3460368857        3.5719520206        1.6651839983
 C       -15.4152077818        1.4406257346        3.2341108208
 C        -9.8223407747       -2.0425061396        3.1577190783
 C        -8.6037324264       -0.0627812791        3.9807540926
 C        -6.4269452456        3.2274048796       -1.1920048809
 C        -6.9865853336        4.5037171220        0.8761262748
 C        -9.1781896491        8.5577081318       -3.4333680936
 C       -11.4172249948        7.4494319251       -3.8313225793
 C        -7.1892996294        2.2353556084       -7.0419883104
 C        -5.0190450456        3.4492884202       -6.6150430363
 H        -4.3165246065        3.9124404809       -9.1294101886
 H        -5.4126806021        4.4349362337      -10.5829506646
 H        -5.1914082980        2.6646147772       -9.9149415614
 H        -8.1889779687        6.0353410530       -7.4014960615
 H        -6.4712308979        6.4316073577       -7.2019976571
 H        -7.4925781329        8.0805741924       -5.8403124895
 H        -7.2351920456        6.9026707711       -4.6824842973
 H       -10.2759580546        4.4824883951       -3.8870235897
 H       -11.0043759729        4.7339898141       -2.3367499380
 H        -8.1443763677        3.9133411046       -2.7649990459
 H        -9.4306845474        2.7555817190       -2.5607889823
 H        -5.8294453993        1.2059657659        0.4649266909
 H        -6.9624352975        0.5512432276       -0.5384142010
 H        -6.6886446994        0.0874776620        2.3489574911
 H        -6.7537725918       -1.1004572288        1.0331766134
 H       -11.6955031158       -0.9769586515        1.2156220386
 H       -11.2732674460        0.5764045080        0.6395520265
 H       -13.5076423274        0.0140730542        2.6624474765
 H       -13.8068462904        0.2269898816        1.0086132791
 H       -15.2266761871        4.9842394744        4.5640348422
 H       -14.0178808195        5.2140593170        3.1760822031
 H       -13.2422721730        4.7478042847        6.1943998052
 H       -13.5539213318        6.3215280050        5.4335441019
 H        -9.4821411021        8.0927830639        5.1594541524
 H        -8.0449712875        7.9133850629        4.3240194706
 H        -8.0723812704        7.0401546101        5.8465556682
 H       -11.3273258371        5.7692024359        7.3749671499
 H       -11.4226115667        7.3027226308        6.2751070374
 H        -9.9704284808        6.7563784458        7.1829813471
 H        -9.3664372657        3.9045040634        6.4777591944
 H       -10.0152773009        3.4886350615        4.8904595483
 H       -11.0601182818        3.5450801489        6.2411491085
 H       -16.2980584320        4.0302896660        2.0084443903
 H       -15.6324640454        3.0442780853        0.7743514062
 H       -14.6347481355        4.3357658811        1.3240746657
 H       -16.3171676502        1.8391773404        3.5933984628
 H       -14.9306855696        1.1037202822        4.2098561824
 H       -15.4746570571        0.6118899077        2.5445501881
 H        -8.9373649462       -2.6141848394        3.4020399797
 H       -10.3841886037       -2.4530278811        2.3340502490
 H       -10.3697287254       -2.1679444519        4.1215228643
 H        -8.2891103771        0.9389582370        3.8134917666
 H        -7.7817739994       -0.6532559797        4.2373497999
 H        -9.2141093586       -0.0432389791        4.9330295540
 H        -5.5237999655        2.8988562662       -0.6363909621
 H        -6.1841910477        4.1646171703       -1.7519399162
 H        -6.5864038841        2.4277059570       -1.9067051911
 H        -6.6048436620        3.8857683059        1.6866073301
 H        -7.7567188077        5.1619292531        1.3703635929
 H        -6.1241821023        5.1059221939        0.5439802653
 H        -8.2305080784        8.3506010132       -2.8831025192
 H        -9.8378611966        9.0709385808       -2.7001654338
 H        -8.9619290845        9.3759155719       -4.2167801993
 H       -11.5226715708        8.4763853136       -4.1923422156
 H       -11.8137603374        7.3806502327       -2.7979609733
 H       -11.9574852223        6.8335674085       -4.5434853903
 H        -8.2431952470        2.5314852264       -7.1172544586
 H        -7.0222520374        1.7495385214       -6.0698878992
 H        -6.8140445475        1.4922406187       -7.7718474332
 H        -4.4319514156        2.7150870642       -7.1625330519
 H        -5.0429471635        3.1134744160       -5.5517128458
 H        -4.5124976437        4.4116598675       -6.7422006642
 Na      -10.1956036351        3.7241814515        2.2377885856
