117

 C        -5.4391061549        3.4577649954       -9.8719974663
 C        -6.5489890315        3.8785778270       -8.8059238172
 O        -7.5550657056        4.4574135614       -9.2591532931
 C        -6.4095357352        3.6994406567       -7.2176358823
 C        -7.1131258555        4.7947791181       -6.3430836939
 O        -7.1788545036        4.5746736030       -5.1419072499
 C        -7.4315419824        6.1713400254       -6.9139344568
 C        -8.0052543282        7.1637613529       -5.9374422936
 C        -9.3373009563        6.6280064879       -5.2932717031
 O        -9.9995900047        5.8420771733       -5.8757596525
 C        -9.6348026329        7.0838694153       -3.8279043864
 C        -9.1720308325        5.9501833850       -2.8857258940
 O        -8.1882757224        6.0182256504       -2.1701986235
 C        -9.9191177741        4.5661120434       -2.8901314080
 C        -9.1435626523        3.3956862716       -2.1760523256
 C        -8.9025867034        3.8006595454       -0.7869255116
 O        -9.7333840777        4.3388878752       -0.0727090919
 C        -7.5253766654        3.4918681256       -0.2231692212
 C        -7.7481659208        2.1367275088        0.6681053634
 O        -8.5387347386        2.1104651004        1.5909120066
 C        -7.0783774099        0.7735393259        0.4182286406
 C        -7.2059717705       -0.1369155169        1.7255010811
 C        -8.6842990509       -0.7215038796        1.7354990867
 O        -9.1854373119       -1.0199795949        0.6262377656
 C        -9.4819364621       -0.6484089206        3.0095321212
 C       -10.7067431287        0.3605501566        2.7269724791
 O       -10.6908697356        1.4425176087        3.2808617262
 C       -11.9482313799        0.0671697148        1.8190982721
 C       -13.2332138286        0.5308548731        2.4010842005
 C       -13.4418357869        1.9954947775        2.0824988189
 O       -12.6826641466        2.7233286567        1.4848824170
 C       -14.6740391920        2.6994658751        2.7618959785
 C       -14.1279732182        3.6179206049        3.9229220404
 O       -13.7050862579        2.9927499759        4.8959580885
 C       -14.2196950161        5.2041650705        4.0290599032
 C       -13.1233149902        5.8351818885        4.9215128761
 C       -11.7110160513        5.2741494186        4.4854562592
 O       -11.5513308115        4.6338713394        3.4464727253
 C       -10.4620283657        5.5657257866        5.3217650303
 C        -9.4137652662        5.9451961493        4.2542451281
 O        -9.0743042158        5.2129414625        3.3623710164
 C        -8.7852553725        7.2974555985        4.4386582766
 C       -10.6591530434        6.5143687957        6.5407049162
 C        -9.9886626567        4.1906403504        5.8954510856
 C       -15.3113866833        3.5612281950        1.6795135617
 C       -15.6640731738        1.7846082653        3.3878774711
 C       -10.2152068924       -1.9867526478        3.5469626196
 C        -8.6309778884       -0.1965874002        4.2248939458
 C        -6.3897230778        3.3110036900       -1.2616305727
 C        -7.1614869338        4.5991628541        0.8026003012
 C        -8.9412464393        8.4017863825       -3.2621335945
 C       -11.1661550551        7.2950371739       -3.5817158996
 C        -6.9415037483        2.2803609023       -6.8159670526
 C        -4.8653656597        3.7714302769       -6.8421080008
 H        -4.9930775931        4.4591381120      -10.1990185927
 H        -5.8558979300        2.9561062831      -10.7734267342
 H        -4.6428272883        2.8799400763       -9.3706656458
 H        -7.9690174164        6.0235586237       -7.8601125697
 H        -6.4110414489        6.4952971810       -7.1242826904
 H        -8.0717923396        8.1347188480       -6.4366853741
 H        -7.2066036610        7.3043266749       -5.2036124635
 H       -10.2665515120        4.2848663934       -3.8783658003
 H       -10.8790180619        4.6498922688       -2.4146714277
 H        -8.3218414152        3.0251580664       -2.6686985573
 H        -9.7878821680        2.5225200490       -2.2401485238
 H        -6.0252836687        0.8917744552        0.0538197152
 H        -7.5742640309        0.3237409287       -0.4187105655
 H        -7.0513363524        0.5642657278        2.5884860471
 H        -6.4773698116       -0.9105282124        1.6149108274
 H       -11.9428924171       -1.0657659687        1.5793394118
 H       -11.7516373085        0.4988025870        0.8150441604
 H       -13.2963687922        0.5190766940        3.5402971185
 H       -14.1128355066       -0.1908436092        2.0964668712
 H       -15.2291362326        5.4604327578        4.2241281616
 H       -14.0392403847        5.6658589552        2.9986959188
 H       -13.2246143777        5.5466707310        6.0339468169
 H       -13.1953926284        6.9222748249        4.8340650841
 H        -9.4537502478        8.0880517737        4.1798981020
 H        -8.0003772577        7.3203866218        3.6898035300
 H        -8.2003188534        7.4111579562        5.3703315955
 H       -11.6888135454        6.7774117510        6.7377159236
 H       -10.0731961914        7.4377960985        6.5017628220
 H       -10.3899711406        6.0605427026        7.4500242472
 H        -9.0929086136        4.2976087002        6.5126191502
 H        -9.7508412300        3.4947734867        5.0854686874
 H       -10.7780961679        3.6589906001        6.4447665991
 H       -15.9860962692        4.3779947346        2.0346762849
 H       -15.7802051947        2.9255374385        0.9420370486
 H       -14.5296399812        4.0573697927        1.0721527460
 H       -16.4185646952        2.4620253243        3.7192501378
 H       -15.2920784509        1.2756912905        4.3273252333
 H       -16.2033854922        1.1257019891        2.6825060498
 H        -9.4532149394       -2.7171799259        3.8480883126
 H       -10.7748816449       -2.4932818986        2.7856988432
 H       -10.7252313746       -1.7586662829        4.5289904282
 H        -8.2842827635        0.8307302087        4.1463429540
 H        -7.7879827250       -0.8567420550        4.3874309625
 H        -9.2780071227       -0.2319176101        5.1853681324
 H        -5.3657987907        3.0871783569       -0.8489741471
 H        -6.2016020264        4.2596142526       -1.8302285816
 H        -6.6366259237        2.5695655356       -1.9927023576
 H        -6.0962428432        4.7104236678        0.9858119268
 H        -7.6104122792        4.3552209073        1.7894133013
 H        -7.6526416627        5.5470151346        0.5082253411
 H        -7.8583737567        8.4202771995       -3.3587103669
 H        -9.0987676865        8.3841704401       -2.2275010460
 H        -9.2459084492        9.3367155180       -3.7462090670
 H       -11.2819477395        7.5844725476       -2.5502363608
 H       -11.7664961920        6.4038246923       -3.7420445122
 H       -11.5940778550        8.0587099807       -4.2339501185
 H        -7.8896134512        2.0550346880       -7.3272404436
 H        -7.0496825394        2.3649389775       -5.7548281943
 H        -6.2107199906        1.4984530745       -6.9784387226
 H        -4.3423377165        2.9385330579       -7.2484420554
 H        -4.7878881681        3.6309826595       -5.7646637493
 H        -4.3718747189        4.6405705387       -7.2028819528
 Na      -10.3818030379        3.4683589307        1.9983756584
