117

 C       -14.3685895892        3.4930645706       -0.6859085014
 C       -13.1958529286        2.8688237779        0.1803050791
 O       -12.3911713704        2.1644900718       -0.3608401438
 C       -12.8833528812        3.6027626370        1.5955940461
 C       -12.2861136092        2.6146832283        2.5796164639
 O       -11.1033619722        2.2120722127        2.5274364715
 C       -12.9297126566        2.1949301790        3.9109444090
 C       -12.4644458557        0.8305873904        4.3130182527
 C       -12.6862730801       -0.1827038817        3.1292474895
 O       -13.6890485460       -0.0062543905        2.3837661553
 C       -11.7820431345       -1.4086655609        3.0731187156
 C       -11.2941038740       -1.0329301158        1.6315135154
 O       -10.0820384333       -0.7323166809        1.5299508158
 C       -12.1315456952       -1.1056744151        0.2888180623
 C       -11.4497662289       -2.0193087929       -0.6406787279
 C       -10.7801068221       -1.1964004182       -1.8904762543
 O       -11.1622863742       -0.0449462037       -2.0347982667
 C        -9.8788545075       -1.9451851637       -2.8428983058
 C        -8.4948466780       -2.2291154362       -2.1776911264
 O        -8.4253617239       -3.0323488316       -1.2933225169
 C        -7.1368082517       -1.5769812813       -2.5136015883
 C        -6.7046946175       -0.7649292457       -1.2408169218
 C        -7.6364672724        0.3924144481       -1.1229408191
 O        -8.8236295228        0.2688979144       -0.8343237487
 C        -6.8834486440        1.8650608325       -1.0625548944
 C        -7.9166833122        2.9077178527       -1.4367266913
 O        -8.9362789574        2.9856822363       -0.7955247149
 C        -7.7557186972        3.9621243933       -2.6520586740
 C        -7.9803133010        5.3623419513       -2.1467861627
 C        -6.9235788082        5.6781284119       -1.0494801877
 O        -6.2458805536        4.7938313404       -0.5723764781
 C        -6.8090588623        7.2001841007       -0.5514137680
 C        -7.1704001163        8.4034004731       -1.6570281164
 O        -7.4970181914        8.1618817209       -2.7695760290
 C        -7.2063843616        9.7205819641       -1.0970274923
 C        -8.4148077756       10.6238510995       -1.6116495867
 C        -9.3761582132       10.9068583816       -0.4653200933
 O        -9.4860775038       10.0705729520        0.4097133676
 C       -10.3121057932       12.1803970804       -0.5290107055
 C       -10.8552143739       12.4390627923       -1.9750646200
 O       -10.2772076668       12.0471625188       -2.9975503579
 C       -12.1353111557       13.3105850475       -2.2353303612
 C       -11.5174625764       11.9214431013        0.3883193709
 C        -9.5281318357       13.3844815344        0.0036810411
 C        -7.9964008818        7.2757911637        0.4199304769
 C        -5.4357249048        7.3233592090       -0.0138930337
 C        -6.5976289811        1.8842072554        0.5302309168
 C        -5.6188309311        1.8521820205       -1.9511689686
 C       -10.4240640592       -3.2824595264       -3.2472946738
 C        -9.7673828920       -1.0409282284       -4.0579351262
 C       -10.5667619152       -1.6465667462        4.0909467932
 C       -12.4979580925       -2.8401895420        3.1058129645
 C       -11.7592936288        4.6610999161        1.2192656206
 C       -14.2072133222        4.1880210574        2.1716089888
 H       -14.8354655521        2.7678929954       -1.2905855301
 H       -13.8624850991        4.2867680759       -1.1819444205
 H       -15.2100687068        3.9436697683       -0.0876852427
 H       -14.0134582510        2.3590710403        3.8224039266
 H       -12.5317973120        3.0883671868        4.5912533674
 H       -12.9497034141        0.4334576777        5.1510726552
 H       -11.3677085889        0.7289612683        4.5633372668
 H       -12.0921153740       -0.0569066104       -0.1074606241
 H       -13.1040968417       -1.5122308265        0.4743833681
 H       -12.0899642094       -2.8221911699       -1.0742448713
 H       -10.5683269494       -2.4572244463       -0.1501193959
 H        -7.2101393137       -1.0198490510       -3.4111476098
 H        -6.3640955762       -2.3330551824       -2.7797787141
 H        -5.6298088845       -0.5078616361       -1.2922379294
 H        -6.9192313166       -1.3895341805       -0.4578012514
 H        -8.4327396457        3.6565403843       -3.4662116905
 H        -6.7273251592        3.7368284154       -3.2187931186
 H        -8.9678449851        5.4897427037       -1.6920950636
 H        -7.9161242115        6.1266694811       -2.9191988519
 H        -6.2673893056       10.2036515443       -1.3764634755
 H        -7.3544789361        9.4918663537       -0.0455786532
 H        -9.0902775177       10.1208861382       -2.2948317578
 H        -8.1227543740       11.5967576709       -2.0953623709
 H       -12.2025457177       13.4470554361       -3.3080423178
 H       -12.0091350952       14.4291878872       -1.8687823550
 H       -13.0456588135       12.9728410427       -1.8235963951
 H       -12.1920971499       12.8364785953        0.6362999443
 H       -11.1989250624       11.6912956888        1.4659887566
 H       -12.3656911296       11.1405240547        0.1592277784
 H       -10.0504646086       14.3811274459        0.1805610433
 H        -8.6946670241       13.6552829541       -0.6561290032
 H        -9.1641578908       13.1576200014        0.9046519460
 H        -7.8976101804        8.0099034678        1.2313162343
 H        -8.0828285163        6.2866831793        0.9655945097
 H        -8.7995514561        7.4524998923       -0.2200140120
 H        -5.3297508480        8.1554044224        0.7496930133
 H        -4.6664866419        7.4891624419       -0.7046170032
 H        -5.1901974020        6.3740882369        0.5407278681
 H        -5.8735305544        1.1424018436        0.9176089040
 H        -7.5855721022        1.6537723508        0.9281060726
 H        -6.3345401921        2.9185111234        0.7826380080
 H        -5.1993502456        2.8375214994       -2.0537352033
 H        -5.8787668397        1.4554419740       -2.9610947168
 H        -4.8055279186        1.2240532638       -1.5555145096
 H       -11.0350771710       -3.2097444681       -4.0848696492
 H       -11.0364996309       -3.6779740060       -2.4241522448
 H        -9.7563702848       -4.1028927789       -3.3024746077
 H       -10.6563217458       -0.9248883028       -4.6936000265
 H        -8.9110269301       -1.4472052070       -4.5456136330
 H        -9.3934324633       -0.0238638369       -3.7702927078
 H        -9.8005230418       -0.8536439637        3.9018045838
 H       -10.0343383720       -2.6123117107        3.8578277691
 H       -11.0221991563       -1.6189126294        5.0673763038
 H       -12.4752849961       -3.3852819757        4.0390929185
 H       -11.8279440992       -3.4732013167        2.5037673461
 H       -13.5034785952       -2.9852785422        2.6587148492
 H       -10.7142133220        4.4068360902        1.1435354592
 H       -11.7115327287        5.4512126253        1.9347280334
 H       -11.9109630230        5.1800156128        0.2225138820
 H       -14.0943486558        4.6864980433        3.1309400278
 H       -14.9012343190        3.3271843444        2.2070540615
 H       -14.7466572767        4.8426089374        1.5742381075
 Na      -10.4059903411        1.4219192121        0.4705067267
