117

 C        -6.1392043754        2.0662517220       -9.6925506200
 C        -6.7466282109        3.1799353292       -8.8430997696
 O        -7.8881904857        3.6154062713       -9.0876463368
 C        -5.9050205911        3.9563413398       -7.7232559423
 C        -7.0159165838        4.5221349822       -6.6578847985
 O        -7.0225375520        4.0749629266       -5.5380561725
 C        -7.7203828483        5.7573833058       -7.1027022414
 C        -7.9179913173        6.7881374734       -5.8377510638
 C        -9.2821323448        6.7147603435       -5.1279109141
 O       -10.3144694088        6.5452832523       -5.6987818596
 C        -9.2900575696        6.9351362152       -3.5608430767
 C        -8.7232177723        5.4290267892       -3.0863064547
 O        -7.6050541620        5.2983252820       -2.7387097709
 C        -9.7377984996        4.1749770020       -3.0611795898
 C        -9.2055555652        2.9162263763       -2.4308844692
 C        -8.9217650175        3.1031941521       -0.8814888915
 O        -9.6381039542        3.7928664583       -0.1970557774
 C        -7.5398821113        2.6498725979       -0.3279099476
 C        -7.9947245141        1.4411215663        0.5995609412
 O        -8.5114714510        1.7591171311        1.6561550651
 C        -7.8390216769       -0.0814562434        0.2271234078
 C        -7.9421035271       -0.9245807454        1.4614776606
 C        -9.4275232554       -0.9406663153        2.0789916633
 O       -10.3402039713       -1.1453072895        1.3374218209
 C        -9.5444134095       -0.5434609826        3.6512116285
 C       -10.4630165373        0.7208805808        3.7879122248
 O       -10.0567071364        1.8074773567        4.1177606022
 C       -11.9826780325        0.4226882003        3.6544357137
 C       -12.9395445663        1.5846296348        3.8682887664
 C       -13.2916132829        2.4122298592        2.6490953835
 O       -12.4823433418        2.4633028737        1.7039295578
 C       -14.5131329702        3.2663414082        2.7375061659
 C       -14.6498035817        4.1936641712        3.9829534687
 O       -15.0539459324        3.6844013871        5.0206939158
 C       -14.4859082417        5.7787038972        3.9104597005
 C       -13.2607925787        6.4446894201        4.5160172630
 C       -11.9166725030        5.8147458243        4.0967710680
 O       -11.8844677043        5.0468278820        3.1464118837
 C       -10.5807772949        6.2803478459        4.8213985729
 C        -9.4142542610        6.4106698292        3.6060901203
 O        -9.0576989925        5.4310146817        2.9712242460
 C        -8.4306412990        7.5323430533        3.6228410342
 C       -10.8453097450        7.5721168704        5.6652589262
 C       -10.0791177706        5.0586724922        5.6889000915
 C       -14.7034460871        4.0277695928        1.4296445445
 C       -15.7610458983        2.3303233561        2.8471604588
 C       -10.2931282788       -1.6580374901        4.3840986991
 C        -8.2423126613       -0.3553811088        4.3392113665
 C        -6.4798392466        2.2638831607       -1.3812207732
 C        -6.9412100550        3.8194437211        0.6083303752
 C        -8.3337353230        8.0674468413       -3.1039965216
 C       -10.7096326827        7.1574411956       -3.0186383267
 C        -4.9407516243        2.9324473945       -7.0121582594
 C        -5.0506970054        5.0249153995       -8.3988901101
 H        -6.8167361226        1.2016091395       -9.9044706946
 H        -5.0787000648        1.7580240077       -9.2972077687
 H        -5.9649204621        2.5753079237      -10.6824069735
 H        -8.6719259149        5.5348618891       -7.5066751147
 H        -7.1431989316        6.2223753939       -7.9090634416
 H        -7.8002129435        7.7567552700       -6.2191472498
 H        -7.0702240856        6.6669948093       -5.1342121376
 H       -10.0091526161        3.8796844639       -4.0778599647
 H       -10.5614013114        4.5170386425       -2.4577041954
 H        -8.1550201185        2.7403205935       -2.8588745098
 H        -9.9069314655        2.0869910924       -2.6024242783
 H        -6.8751527498       -0.2231374917       -0.2605014369
 H        -8.6201091460       -0.4039206636       -0.3982833235
 H        -7.2156916392       -0.5980025847        2.1297356268
 H        -7.6644971347       -1.9878734813        1.1839493326
 H       -12.2550763035       -0.4495761564        4.2565644136
 H       -12.0449933209        0.0508975938        2.6332847429
 H       -12.3894006188        2.2641029005        4.5010378060
 H       -13.8344339013        1.2809397350        4.3842939519
 H       -15.2954461950        6.1777240389        4.5810885917
 H       -14.5264129345        6.1711015704        2.9393216356
 H       -13.3740345458        6.6348262735        5.5821918781
 H       -13.2621033498        7.4108684007        4.0322444342
 H        -8.9028041749        8.5401486552        3.4823928088
 H        -7.6910163328        7.4198660124        2.8392706427
 H        -7.9174197143        7.4365157639        4.5704406348
 H       -11.3517312216        7.2442805467        6.5680162982
 H       -11.4798349995        8.1919313332        5.1039689850
 H        -9.9272549727        8.1241259128        5.8659408568
 H        -9.2076676046        5.3414322503        6.2806130114
 H        -9.8485770736        4.2783513011        4.9478647574
 H       -10.8915588263        4.6248779779        6.2783430184
 H       -15.5268944482        4.7173167363        1.4924275596
 H       -14.8442767586        3.2238389200        0.6804265507
 H       -13.8299710026        4.5062312280        0.9949328686
 H       -16.7850524944        2.7897165807        2.6863128691
 H       -15.7422239308        1.9406913509        3.8249163663
 H       -15.7238599834        1.5733808910        2.0711908022
 H       -11.2817679435       -1.9132879112        3.9910536932
 H       -10.4649662982       -1.4287311553        5.4670435169
 H        -9.6733303086       -2.5495301893        4.2997786323
 H        -7.8706480081        0.6096263320        3.8951443556
 H        -7.4956991777       -1.1677099756        4.0901377929
 H        -8.3772398371       -0.2473532248        5.3765633907
 H        -5.5696214702        1.9787044848       -0.8735863988
 H        -6.1358734966        3.1012752596       -1.9496329042
 H        -6.9031655003        1.4793810720       -2.0401914891
 H        -5.8503786747        3.6937872659        0.5659380768
 H        -7.2433389873        3.8091644230        1.6319680943
 H        -7.1866996833        4.7411246309        0.1448606899
 H        -7.3402246795        7.6693166022       -3.1617801122
 H        -8.6047489161        8.2595957181       -2.0682057699
 H        -8.3923577178        8.8766312390       -3.7617498110
 H       -10.8839810990        6.6955949030       -2.0788377834
 H       -11.4773805804        6.7701180332       -3.6438006275
 H       -11.0456613952        8.1529189468       -2.8760727576
 H        -5.5723528819        2.1107752151       -6.7158279262
 H        -4.4810370055        3.4141794922       -6.1486785947
 H        -4.1687081062        2.6234840649       -7.6932526484
 H        -4.2369604386        4.5650023580       -8.9872194759
 H        -4.5647287825        5.6099096773       -7.6280779228
 H        -5.5458657080        5.6256365954       -9.1651494507
 Na      -10.1551532382        3.5455443664        2.3813328261
