117

 C       -14.2255769081        3.4733969055       -0.6372742229
 C       -13.0670093162        3.0534915305        0.2542361662
 O       -12.3959762836        2.1657854359       -0.2205003862
 C       -12.8314511954        3.5935763386        1.6676779611
 C       -12.2319192153        2.5635439728        2.6370072410
 O       -11.1977795122        1.9930162967        2.3402170216
 C       -12.9283955050        2.1497400922        4.0559452265
 C       -12.4590965942        0.7297484985        4.4028732216
 C       -12.8294025385       -0.2792296729        3.2480669947
 O       -13.5432099942        0.1840352221        2.3931674035
 C       -11.8730180414       -1.4814220194        2.9827922319
 C       -11.2594095582       -1.2089805736        1.6294079312
 O       -10.1002797372       -0.8174980327        1.5397190302
 C       -12.1617099607       -1.0617685556        0.4066429882
 C       -11.4889284443       -1.9204699322       -0.6664310262
 C       -10.8164272429       -1.0779474248       -1.8478126842
 O       -11.1199192544        0.0539862088       -2.1063390798
 C        -9.8436559452       -1.9530092557       -2.6996656813
 C        -8.4900614689       -2.2076823186       -1.9327145444
 O        -8.4502957907       -3.1612879622       -1.1522853624
 C        -7.1885864445       -1.4917652343       -2.3282603592
 C        -6.6452234537       -0.7516852619       -0.9478479767
 C        -7.5590417616        0.4267816712       -1.0189271063
 O        -8.7681447786        0.2371713412       -1.0487242937
 C        -6.9988645245        1.8967405141       -1.0632250960
 C        -7.9858730643        2.9675116738       -1.5051934204
 O        -9.0913638884        3.0982377999       -0.9595525558
 C        -7.7109431062        3.8774350496       -2.7217947648
 C        -7.9032504263        5.2848287869       -2.2029814512
 C        -6.8931509810        5.5948826021       -1.1481952046
 O        -6.2901748848        4.7186773325       -0.5772389811
 C        -6.7831731295        7.1341318416       -0.5998930529
 C        -7.1399311603        8.2310290233       -1.6864472529
 O        -7.4547850511        7.9369624010       -2.8162578087
 C        -7.1674042549        9.8871459079       -1.0882875771
 C        -8.4165274487       10.6161365743       -1.7852073362
 C        -9.4503870458       10.9192451097       -0.6044973676
 O        -9.5002905628       10.1348302477        0.3474050099
 C       -10.3557147457       12.1927497827       -0.6115558391
 C       -10.8371206476       12.5297663301       -2.1090132872
 O       -10.2485181322       12.0676313828       -3.0340929274
 C       -11.8350489719       13.6913165885       -2.2683826188
 C       -11.5585562676       11.9029141895        0.3655782650
 C        -9.7347587656       13.5264896019       -0.2384551215
 C        -7.8245221592        7.4186486718        0.6234406458
 C        -5.2800470487        7.2091590266       -0.0457917237
 C        -6.6852766411        1.9112143169        0.4519151506
 C        -5.6499641282        1.8184363407       -1.8944545341
 C       -10.5560952417       -3.3884419166       -3.0662845135
 C        -9.6087631518       -1.2741939256       -4.1160757384
 C       -10.7682476492       -1.4533128438        3.9450733867
 C       -12.8267461214       -2.7638225280        2.9891188980
 C       -11.7368109612        4.6689887515        1.4330360387
 C       -14.1208482412        4.1835661251        2.2125505246
 H       -14.8060572024        2.5557123893       -0.6388713164
 H       -13.8712862849        3.8481274816       -1.5665673940
 H       -14.9058240768        4.1658143770       -0.1435377529
 H       -14.0248409658        2.1320916776        3.7927222309
 H       -12.7532445066        2.9454939215        4.7723176602
 H       -12.6941005672        0.3730926016        5.4135509943
 H       -11.4013074510        0.6297984457        4.2973533896
 H       -12.2021931036       -0.0358611451        0.3142192923
 H       -13.1112146697       -1.6073574369        0.5904822196
 H       -12.2350065178       -2.4628753493       -1.2231794384
 H       -10.7642500967       -2.6321454136       -0.3154639795
 H        -7.4570682108       -0.8683004358       -3.1273283856
 H        -6.4644295111       -2.1410134079       -2.7176345055
 H        -5.6327856027       -0.6239041077       -0.9689213733
 H        -6.8819916743       -1.4280130651       -0.1481746629
 H        -8.6060021521        3.6649591874       -3.3540830756
 H        -6.9042698348        3.5808428073       -3.2964493879
 H        -8.8864722822        5.5091338684       -1.7964515613
 H        -7.7259450733        5.9829934644       -3.0116649358
 H        -6.3526039010       10.2747233639       -1.7047406933
 H        -7.1466555783        9.9689448582       -0.0205144230
 H        -8.9720333037       10.1133623469       -2.5188692904
 H        -8.0762716245       11.5678552546       -2.2443056505
 H       -12.0769794363       13.8990212684       -3.3346726592
 H       -11.5922996862       14.6491147635       -1.8233238655
 H       -12.7496263448       13.3352361574       -1.7223632762
 H       -12.3780670559       12.5994767194        0.3152954314
 H       -11.3708572283       11.9434174125        1.4438550405
 H       -12.0731709668       10.9502332439        0.2168170843
 H       -10.4797902067       14.1791497324       -0.0202049375
 H        -9.0857626778       13.9694469655       -0.9452303809
 H        -9.1795445219       13.5247658947        0.7056264899
 H        -7.3288675590        7.8859244955        1.3905874768
 H        -8.0974525285        6.4689790380        1.0950419255
 H        -8.6442490465        7.9653291967        0.2388671699
 H        -5.1730078622        8.0760038109        0.6686443602
 H        -4.5484623389        7.4719954088       -0.8809474710
 H        -4.8561962266        6.3475716755        0.4330143431
 H        -6.1032121148        1.0493171752        0.7007207040
 H        -7.7044127935        1.8029246210        1.0113867902
 H        -6.1257855973        2.8921076348        0.7008565551
 H        -5.4905830463        2.8214459348       -2.2749511127
 H        -5.7322468736        1.1894831200       -2.7653307190
 H        -4.7661461944        1.4424275336       -1.3795785597
 H       -10.4790152784       -3.5754015141       -4.1852936611
 H       -11.6549368000       -3.5002074496       -2.8134410424
 H       -10.2024884121       -4.2310880669       -2.4613105353
 H       -10.5140728204       -1.2729335920       -4.7559954554
 H        -8.7605153415       -1.6845681368       -4.5627734979
 H        -9.3969532368       -0.2273055125       -3.9778025456
 H        -9.9764567657       -0.9834720219        3.3709317241
 H       -10.3613172345       -2.4588576693        4.0816415050
 H       -11.0400611859       -1.0280207712        4.8551281493
 H       -12.9384651227       -3.1288126347        4.0266428070
 H       -12.5860068390       -3.6461371811        2.4348976076
 H       -13.9140283174       -2.5007119220        2.6666442033
 H       -10.7211618711        4.4391701405        1.3876940789
 H       -11.7438367181        5.4609099838        2.2204718688
 H       -11.8548186594        5.2317944337        0.4812044194
 H       -14.1964218129        4.1280731938        3.3036451542
 H       -14.9350070499        3.7117591729        1.7882693935
 H       -14.3452491965        5.2354019592        1.9642168496
 Na      -10.3360417321        1.3498320069        0.4215164356
