117

 C        -6.0675432576        2.2105944989       -9.7714466163
 C        -6.7583758235        3.2599127744       -8.8721947543
 O        -7.8483376872        3.7011392643       -9.0941629090
 C        -5.9191931149        3.9340858553       -7.6428984042
 C        -6.9539889585        4.5501533455       -6.6692261136
 O        -7.1627692907        4.1149769309       -5.5337381221
 C        -7.7481804448        5.8511785807       -7.0321957457
 C        -7.8800873741        6.8707132016       -5.8921656839
 C        -9.2550104040        6.7132325030       -5.1282183510
 O       -10.2736877141        6.3870717909       -5.7051211493
 C        -9.2651302888        6.8565051472       -3.5981217641
 C        -8.7313372048        5.5007115917       -3.0759539449
 O        -7.5542923077        5.3374013892       -2.7366565329
 C        -9.7147737055        4.3737856072       -3.0917919664
 C        -9.2093876050        3.0923439095       -2.3942894790
 C        -8.9806591846        3.0962464138       -0.9009514021
 O        -9.8637043654        3.4721108188       -0.1379318414
 C        -7.5220217729        2.7355754645       -0.2999826005
 C        -7.8792302541        1.5289620027        0.7158966055
 O        -8.4377726848        1.7498837055        1.7673664894
 C        -7.5091777788        0.1010478259        0.2514675329
 C        -7.8248861012       -0.9660112064        1.3990166707
 C        -9.2049556733       -0.8141890777        2.0478491036
 O       -10.2557901306       -1.0108472326        1.3996676521
 C        -9.4947255503       -0.5601917191        3.5928477923
 C       -10.4764287946        0.6623864571        3.6550354258
 O        -9.9414023996        1.7581618809        3.8151109106
 C       -11.9923327221        0.5089016769        3.4290853920
 C       -12.8219456068        1.7197342595        3.9723752079
 C       -13.3143242075        2.4907265653        2.7645286305
 O       -12.6263438394        2.6303522781        1.7878070572
 C       -14.6858832907        3.3115070193        2.8187237237
 C       -14.7438696521        4.1976191228        4.0962498592
 O       -14.9254936483        3.6335335065        5.1468468849
 C       -14.5772835488        5.6875988590        3.9815614765
 C       -13.1795837502        6.1261650433        4.6949962062
 C       -11.9239262324        5.7500170206        3.9967495148
 O       -12.0007884812        5.0345925422        3.0192080220
 C       -10.5531879945        6.1430294107        4.7927674437
 C        -9.3718789054        6.2613145381        3.7409401259
 O        -9.0961245814        5.4337442982        2.9141401078
 C        -8.5370368487        7.5719384603        3.8012154524
 C       -10.6167121368        7.5053305468        5.6060739021
 C       -10.3571004430        4.9385010395        5.7580679574
 C       -14.7879401832        4.1073945376        1.5149555617
 C       -15.7544843257        2.2293510677        2.7848359456
 C       -10.1674164522       -1.8763861768        4.0243555792
 C        -8.2743226670       -0.3075043565        4.4001455101
 C        -6.4915459068        2.2514173480       -1.3645473828
 C        -6.9603845600        3.9890803899        0.4860465933
 C        -8.3279677687        7.9790077407       -2.9863524646
 C       -10.7826227945        7.1223423811       -3.1162947823
 C        -5.1257342140        2.8750627981       -6.8110149789
 C        -4.9535095273        5.0544045672       -8.2701614534
 H        -6.7820542458        1.3909003858       -9.8124253464
 H        -5.1641767752        1.8576032376       -9.4585157580
 H        -6.0073530382        2.5793893584      -10.7890244603
 H        -8.7917690392        5.5578216674       -7.3562581538
 H        -7.2863365487        6.3096346892       -7.9127305463
 H        -7.8179544920        7.9082811237       -6.3671833633
 H        -6.9782802901        6.7998938762       -5.3045780061
 H        -9.7033371399        4.0724436139       -4.1341822216
 H       -10.7077743816        4.7220651299       -2.8084826213
 H        -8.3249027771        2.8359255511       -2.8635512724
 H        -9.9823732674        2.3575690131       -2.4767484227
 H        -6.4204206905        0.1342658151        0.1056308498
 H        -8.0559132229       -0.1268735052       -0.7240052206
 H        -6.9857448620       -0.9278022847        2.1586335358
 H        -7.7318293497       -1.9655946511        1.0452456602
 H       -12.3091198220       -0.4152912212        3.9235862687
 H       -12.0368797345        0.2654801140        2.3132353966
 H       -12.0820512934        2.4105385910        4.5405187697
 H       -13.6376109790        1.3755110830        4.6780242730
 H       -15.3423338150        6.2931648461        4.4415338331
 H       -14.4117387537        5.9897585067        2.8879088676
 H       -13.1075802193        5.5907485147        5.6601431736
 H       -13.2068700899        7.2309326858        4.9177689844
 H        -9.1330780963        8.4857633821        3.7127225575
 H        -7.7012393512        7.5774864193        3.0831990973
 H        -8.1197511799        7.5698190915        4.8460908571
 H       -11.3862029991        7.4979065422        6.3687902681
 H       -10.7241955475        8.3256632278        4.8605674683
 H        -9.6688221604        7.6231646592        6.1356182263
 H        -9.5938581281        5.1675739537        6.5029803714
 H       -10.1093821508        4.0430828575        5.2024910264
 H       -11.2948162363        4.7668935624        6.2858858228
 H       -15.7237705196        4.6754124883        1.4855169482
 H       -14.6647836496        3.5433719414        0.6308888666
 H       -13.9760340365        4.8097227976        1.4487044544
 H       -16.7189340018        2.6347997174        2.8574534083
 H       -15.7223435354        1.5632793473        3.6801095479
 H       -15.7085143111        1.7208397467        1.8359259534
 H       -10.8395561001       -2.3788644700        3.3257583969
 H       -10.7852468959       -1.6293294358        4.8738801120
 H        -9.3659230894       -2.5913355772        4.2780606427
 H        -7.8265714105        0.6158243746        4.0848725355
 H        -7.5876186598       -1.1090570175        4.3006586073
 H        -8.6134523208       -0.2363559564        5.4950000208
 H        -5.4869768408        2.2146851221       -0.9726920699
 H        -6.4081966426        3.1137251040       -2.0474345877
 H        -6.7096227841        1.3864914347       -1.9584855332
 H        -6.2041356713        3.7421088297        1.1827798644
 H        -7.7970026775        4.4570657493        1.0230819576
 H        -6.5868047445        4.7224644716       -0.2374699777
 H        -7.3282975852        7.6888173439       -3.2702610274
 H        -8.3316589772        7.9158091308       -1.9245407658
 H        -8.5641351083        8.9641441126       -3.4266538821
 H       -11.1740506112        6.5272386594       -2.2504461379
 H       -11.6002629317        6.9880934086       -3.8601698624
 H       -10.9975137850        8.1395192162       -2.7553830843
 H        -5.8903526218        2.3180408214       -6.2918578307
 H        -4.4346337471        3.3872194759       -6.1451472640
 H        -4.4752558603        2.2833404722       -7.4775477869
 H        -4.0297784186        4.6447527440       -8.6876664009
 H        -4.6270710171        5.8174566125       -7.5457675199
 H        -5.4658231743        5.4768157313       -9.1414436048
 Na      -10.3423507162        3.3910972765        2.1568380238
