117

 C        -6.4136644250        1.8396641084       -9.6920469730
 C        -6.9984134680        2.9736445325       -8.8153066989
 O        -8.1769484426        3.3158363497       -8.9957265852
 C        -5.9390825823        3.8552662291       -7.9681471872
 C        -6.7235739859        4.4026763458       -6.7598639735
 O        -6.6044413123        3.9118690365       -5.6618821945
 C        -7.6160892905        5.5957297828       -6.9661379483
 C        -7.7229425297        6.4672182562       -5.7325836293
 C        -9.1275115989        6.3810592672       -4.9991055640
 O       -10.0658713282        5.9524979345       -5.6254152650
 C        -9.2410520160        6.8727510549       -3.5220833165
 C        -8.9282014239        5.5831142989       -2.6968009698
 O        -8.0977391510        5.7284867628       -1.8339852674
 C        -9.9208927259        4.4382201288       -2.7388100238
 C        -9.3689080950        3.1365668336       -2.2364174516
 C        -9.1424552688        3.1272997499       -0.7424070786
 O        -9.7985511098        3.7710255759        0.0426397655
 C        -7.8117781003        2.2830104913       -0.1298757928
 C        -8.4317901174        1.0946494550        0.7189154854
 O        -9.1337712191        1.3960809597        1.6588121450
 C        -8.1321661243       -0.3281862688        0.3731907893
 C        -8.4020070872       -1.2189987231        1.5880296261
 C        -9.7242174477       -0.8324215053        2.3226735433
 O       -10.8371170984       -0.9360522987        1.8608888162
 C        -9.5343480961       -0.2580823337        3.8539406965
 C       -10.6945070029        0.8671254707        4.0073107941
 O       -10.2637479715        1.9670339741        4.2101369258
 C       -12.1245763335        0.4302382850        4.0698806138
 C       -13.1821716253        1.5573692139        3.8104237531
 C       -13.1174438394        2.2550087892        2.5399682982
 O       -12.1953692213        2.0685433212        1.7396910153
 C       -14.2511230002        3.3572345430        2.2763506073
 C       -14.1531930220        4.5430648325        3.3934827938
 O       -14.2169308739        4.1834255461        4.5640869207
 C       -13.9447295327        6.0589244756        2.8730199792
 C       -12.9638819411        6.8258088190        3.8225655112
 C       -11.7037554161        6.0021976926        4.0025630258
 O       -11.7932974383        4.8299178745        3.6974780899
 C       -10.3251656133        6.4759416457        4.7878514016
 C        -9.2750670424        6.7262320597        3.5711414464
 O        -9.0200514631        5.7815000083        2.8570201956
 C        -8.9108458576        8.1575016213        3.3010800881
 C       -10.7087819088        7.6720997050        5.7404085393
 C        -9.7475346631        5.2201287750        5.5926649349
 C       -14.2094081621        3.8027945605        0.8289599543
 C       -15.6067591744        2.6860625784        2.5338677153
 C        -9.9325841770       -1.4372274715        4.7938849628
 C        -8.1276560033        0.1281181638        4.3554823666
 C        -6.9910088296        1.7438651494       -1.2823922620
 C        -6.9351520479        3.1653815654        0.7889332887
 C        -8.2896273542        8.1075311525       -3.2175196478
 C       -10.7264825113        7.3991315385       -3.1433258691
 C        -4.7352240689        2.9101372463       -7.5040030323
 C        -5.3693160147        4.9189114025       -8.9026282649
 H        -6.9169961416        1.7412580283      -10.6292317682
 H        -6.4362339797        0.8742952165       -9.2343544848
 H        -5.4217758871        2.0829769008       -9.8567060727
 H        -8.6462830278        5.1584844170       -7.0767949607
 H        -7.3267022951        6.2150764733       -7.8500800098
 H        -7.5248563524        7.5333609085       -5.9312470049
 H        -6.8831159710        6.1745388091       -5.0386092611
 H       -10.2533824422        4.2966836299       -3.8067578902
 H       -10.7755938252        4.8363850713       -2.1518493123
 H        -8.4105669058        2.9022570164       -2.7473814471
 H        -9.8946321518        2.2444282292       -2.4454371192
 H        -7.0365340300       -0.2756000035        0.1109472987
 H        -8.5754961396       -0.6709126451       -0.5902095089
 H        -7.6052745122       -1.0644789563        2.2752875744
 H        -8.4215615354       -2.2643869152        1.1716727252
 H       -12.4220735312        0.0469131977        5.0788596001
 H       -12.1520926519       -0.3622266374        3.3879792807
 H       -13.3025094125        2.2373630338        4.6606582126
 H       -14.1594937768        1.0571067412        3.8220600384
 H       -14.9118874332        6.6541325522        2.8688890774
 H       -13.5804459629        6.0920013681        1.8762560878
 H       -13.3827086841        7.0485735466        4.8568803034
 H       -12.7812150533        7.7901638616        3.4374660729
 H        -9.6316114866        8.6163128015        2.6067167774
 H        -7.9348017124        8.3707973587        2.9007656153
 H        -8.8449976579        8.5211535293        4.3000180433
 H       -11.5246340797        7.3548683795        6.4232840817
 H       -11.0320838510        8.4598223540        5.0886916857
 H        -9.8645003675        7.9731234505        6.3844262659
 H        -8.8802862661        5.4886152091        6.2148943433
 H        -9.4569573203        4.4846292523        4.8213238455
 H       -10.5643422162        4.8450362754        6.2319017453
 H       -14.9961514539        4.5063654947        0.5667729639
 H       -14.5126525534        2.8829826075        0.2708440596
 H       -13.2238499788        4.2149469352        0.5560364725
 H       -16.4631371393        3.3517098906        2.2053029845
 H       -15.7195955615        2.4407063346        3.5637242302
 H       -15.5740682572        1.7041379620        2.0282190182
 H       -10.9139585600       -1.8914779255        4.7164093139
 H        -9.8190598679       -1.1298268806        5.8494573959
 H        -9.2321369346       -2.2563781403        4.8018874135
 H        -7.5890378503        0.6629532790        3.5885951724
 H        -7.6548979240       -0.8237483440        4.6084378561
 H        -8.1733629971        0.7077227459        5.1964844907
 H        -6.1246749722        1.1161899702       -0.9529487893
 H        -6.7689769071        2.5428900761       -1.9647024428
 H        -7.6057600459        1.0381049712       -1.8809725955
 H        -6.5384409445        2.5273973726        1.6448790092
 H        -7.4857832159        4.0163809111        1.2065173795
 H        -6.0859283551        3.5143715850        0.1962859073
 H        -7.2518361668        7.7246202295       -3.3539921673
 H        -8.4302677217        8.4839337353       -2.1480868150
 H        -8.6160233009        8.9057043916       -3.8934647773
 H       -11.0061913064        7.1606726357       -2.1314002389
 H       -11.4775812905        6.9353041944       -3.7546491803
 H       -10.8418483873        8.4763769374       -3.1906055939
 H        -5.1506875819        2.0644014012       -6.9290457861
 H        -4.0539157546        3.4555457148       -6.8427252190
 H        -4.1909105227        2.4899930931       -8.3465258429
 H        -4.5672549912        4.4664250445       -9.4502260241
 H        -4.9596356960        5.7459860190       -8.3478433806
 H        -6.0856735872        5.3879381552       -9.5433634689
 Na       -9.8628905026        3.3883056024        2.4610634549
