117

 C       -14.1896262808        3.5137641971       -0.5898585540
 C       -13.0313914796        2.9588907250        0.2732610118
 O       -12.2368320582        2.1089330511       -0.1322495449
 C       -12.8521623025        3.6764791376        1.8065279118
 C       -12.2194918736        2.4308975399        2.6886158402
 O       -11.2642025490        1.7916793744        2.3538466989
 C       -12.9298892781        2.1118714567        4.0089543233
 C       -12.3989242254        0.8187121874        4.4535799869
 C       -12.7569341977       -0.0841445225        3.2517781150
 O       -13.5801953169        0.2395632442        2.4494596226
 C       -11.9877653515       -1.4380676962        3.0984500883
 C       -11.2856378383       -1.1009663259        1.5885054234
 O       -10.1350433687       -0.8812904506        1.4958332579
 C       -12.2906778624       -1.1480466853        0.3398455067
 C       -11.6209431809       -1.9614968214       -0.8685930864
 C       -10.9594401710       -1.1030012940       -1.9212639766
 O       -11.0495760493        0.0940262615       -2.1271279466
 C        -9.8264266307       -2.0394432419       -2.7643873676
 C        -8.5098240003       -2.4333257662       -1.8606177879
 O        -8.5353745144       -3.2211370444       -0.9416851779
 C        -7.1860360344       -1.6455505006       -2.1555468715
 C        -6.7265897721       -0.8131984217       -0.9203139310
 C        -7.6110971178        0.4487291243       -0.9715687206
 O        -8.7865808891        0.2682058300       -1.0996824837
 C        -7.0200909103        1.8464836173       -0.9359698201
 C        -8.1549106444        2.8710180611       -1.5845854840
 O        -9.1931994899        3.0425604679       -0.9483453203
 C        -7.7897675300        3.7530107761       -2.7814354780
 C        -7.9015792257        5.2900643123       -2.3941691742
 C        -6.9758540479        5.6647944454       -1.1579758186
 O        -6.3336004628        4.7778704237       -0.6209682439
 C        -6.7511540687        7.1879792009       -0.5421153882
 C        -7.1069457223        8.1982403359       -1.6006758648
 O        -7.3524469248        7.8762352969       -2.7718675896
 C        -7.0849300823        9.7554465869       -1.3288353414
 C        -8.2653691716       10.5658709229       -1.7851744753
 C        -9.4555768149       10.9588656021       -0.6876047802
 O        -9.5707834407       10.2499426499        0.2739689697
 C       -10.4822776565       12.2588356241       -0.8258574772
 C       -10.8574440855       12.6523082313       -2.2504888281
 O       -10.2799473058       12.0777996241       -3.1334417593
 C       -11.6649267510       13.9652195377       -2.3583411625
 C       -11.5883248719       11.8930857662        0.1903712310
 C        -9.7483294037       13.5580624296       -0.3040167862
 C        -7.5094480289        7.3735904945        0.7602164908
 C        -5.2297671051        7.2629556047       -0.1451461762
 C        -6.6491298784        2.2437414652        0.5434972197
 C        -5.6478903165        1.8896692691       -1.7634311244
 C       -10.5902385019       -3.3877049229       -2.8981100477
 C        -9.4515339984       -1.4485719486       -4.1569316944
 C       -10.8805254941       -1.6861377647        4.1843086374
 C       -13.0844454084       -2.6212892055        2.9163785068
 C       -11.7543353293        4.7689991737        1.7465168608
 C       -14.1297403096        4.3768528404        2.3792619259
 H       -15.1320956030        3.0862073394       -0.1848845894
 H       -13.9197495945        3.3897277964       -1.6675897167
 H       -14.2640959865        4.5466953670       -0.3881675891
 H       -14.0062936582        1.9998054222        3.8978452801
 H       -12.7183864937        2.9095921044        4.6323964625
 H       -13.1822019643        0.3852754399        5.1847060444
 H       -11.4434837379        0.6605747799        4.8285028429
 H       -12.5541094963       -0.1138079706        0.2427762761
 H       -13.1153681810       -1.8027760779        0.5904468663
 H       -12.3763792055       -2.4053066631       -1.4842916075
 H       -10.9176390647       -2.7202465392       -0.6147958805
 H        -7.2864180044       -1.0555523136       -3.0842282246
 H        -6.3916046662       -2.3506030456       -2.2599228960
 H        -5.6822468858       -0.6825003740       -1.2303790476
 H        -6.6238843266       -1.4940458582        0.0005891178
 H        -8.4905697272        3.5490902623       -3.6107615927
 H        -6.8376007053        3.3665487749       -2.9935945482
 H        -8.8803233417        5.7163793672       -2.1750791403
 H        -7.4783489347        5.7828919638       -3.2865109682
 H        -6.3148501751       10.0429278840       -2.0367450060
 H        -6.9588216654        9.9272433313       -0.2428912936
 H        -8.9775331404       10.3055047385       -2.5813215856
 H        -7.8268397111       11.4611344106       -2.1201068970
 H       -11.9454345621       14.1935769449       -3.4078932105
 H       -11.1299772676       14.7633866816       -2.0075027953
 H       -12.5721068304       13.8933930351       -1.6679531046
 H       -12.4833877388       12.3832598950        0.1717423833
 H       -11.3530290004       12.0582853444        1.1799721188
 H       -11.8244868990       10.9060366527        0.2142956800
 H       -10.4472854922       14.2438885683        0.1320693226
 H        -9.0965681827       14.0019977563       -1.0109767766
 H        -9.0206040898       13.4357841077        0.5786855904
 H        -6.7913902655        7.7386486841        1.4606697625
 H        -7.8419713016        6.5097089328        1.1744606233
 H        -8.3544355337        8.0773428970        0.5750533241
 H        -4.9961741872        8.1757477654        0.3651534186
 H        -4.6655273910        7.3364375817       -1.1415557186
 H        -4.7802866955        6.4817604311        0.4349087606
 H        -6.1891432454        1.3255741658        1.0188635191
 H        -7.5829029657        2.4511948704        1.1083066433
 H        -5.9405882666        3.0637325044        0.5139519332
 H        -5.5400657530        2.9617367732       -2.0394830103
 H        -5.6426580657        1.3610183624       -2.7033322328
 H        -4.8035765895        1.4101704490       -1.2832142673
 H        -9.8375929118       -4.1936035506       -3.2640012476
 H       -11.5039382806       -3.6112189891       -3.4612373908
 H       -10.8990293328       -3.6600610674       -1.8522549635
 H       -10.3435700704       -1.2954037870       -4.6820364875
 H        -8.6377327470       -1.8823894256       -4.7701015037
 H        -9.2061634266       -0.4543730534       -3.9402649783
 H       -10.1221211061       -1.0435172720        3.8865305856
 H       -10.4361499915       -2.6049777673        4.0106822818
 H       -11.2733537656       -1.6499956980        5.2126372317
 H       -13.4069668951       -2.8800095158        3.9618017958
 H       -12.8939472872       -3.6101099896        2.4241929916
 H       -13.9904158806       -2.2862226591        2.4925006787
 H       -10.7716489221        4.3459800733        1.4310402092
 H       -11.4493297298        5.3232122167        2.6446888966
 H       -11.8483592616        5.5180375475        1.0290990089
 H       -14.2031380831        4.3263468128        3.4575435074
 H       -15.1036804592        4.1075349045        1.9705432767
 H       -14.1098696613        5.4633591306        2.1083580751
 Na      -10.1173811641        1.2978580624        0.1723591259
