117

 C        -6.1840286519        2.0273355264       -9.5896191186
 C        -6.8774223243        3.1603029712       -8.7526609441
 O        -7.9488330820        3.5307059562       -9.0776493194
 C        -5.9106998689        3.9458754782       -7.7672878033
 C        -6.8575757521        4.5223565597       -6.7179532851
 O        -6.8784285560        3.9758954278       -5.6229213365
 C        -7.8295504052        5.7365992492       -6.9900584307
 C        -7.9258058372        6.6020495408       -5.7801779536
 C        -9.2624360400        6.6017197245       -5.1296691448
 O       -10.2896957230        6.5867358756       -5.8173673618
 C        -9.3058159389        6.8044086945       -3.5921270790
 C        -8.7913462240        5.4390231071       -3.0111892209
 O        -7.6866794344        5.2163825692       -2.5025523210
 C        -9.8787301498        4.3450714302       -2.9945097995
 C        -9.1602098381        3.0214485695       -2.4660280302
 C        -8.8463161306        3.2750042978       -0.9136023828
 O        -9.5733393557        3.8994941354       -0.1528724646
 C        -7.5237010911        2.5970737546       -0.2607720100
 C        -8.1977030423        1.4859038200        0.5772026313
 O        -8.7933324599        1.6399188001        1.6475132595
 C        -8.1175033824        0.0081445461        0.1782865833
 C        -8.1666059000       -0.9788953305        1.4421754693
 C        -9.4668184483       -0.8783737712        2.2414480965
 O       -10.5103267189       -1.1267757823        1.6675083269
 C        -9.5492818756       -0.5831970644        3.7893282069
 C       -10.6206040981        0.5714010679        4.0862867471
 O       -10.2116683658        1.7181685927        4.2795731942
 C       -12.0915621942        0.4014975006        3.7337681121
 C       -12.9762961961        1.6827524136        3.9299530913
 C       -13.1608046055        2.5321835924        2.6858351481
 O       -12.3281412619        2.6357997613        1.8361881070
 C       -14.5809950052        3.3105168228        2.5909206217
 C       -14.6116364802        4.3660236069        3.7886349118
 O       -14.6259212575        3.9293059701        4.9178124660
 C       -14.3984404941        5.8301050079        3.5612901720
 C       -13.2049740947        6.4033422013        4.3911084360
 C       -11.8727401224        5.7560137728        4.0329699018
 O       -11.7913290811        4.8320381775        3.2375453886
 C       -10.5152500142        6.3237080351        4.7173704823
 C        -9.4212151842        6.4924737727        3.6460232710
 O        -9.1012309728        5.5549013591        2.9384216086
 C        -8.6343939220        7.8326774330        3.6651788523
 C       -10.6869889480        7.6634688596        5.6024093141
 C       -10.0406964497        5.1777468996        5.7074330883
 C       -14.6304089509        4.0331110030        1.2100112377
 C       -15.7249073414        2.3198571876        2.7092509527
 C        -9.9968551633       -2.0224541668        4.4255011767
 C        -8.1548110067       -0.0324795661        4.4414959555
 C        -6.5686797074        2.0666380987       -1.2815609953
 C        -6.8138618544        3.6124134237        0.7224723358
 C        -8.2031750304        7.8354671955       -3.1745708992
 C       -10.6990395305        7.1655011963       -3.1353876291
 C        -4.9538523653        2.9821634095       -7.0672225896
 C        -5.1370772209        5.0726542008       -8.5910674463
 H        -6.8438459433        1.2389114013       -9.7686148632
 H        -5.2959622880        1.7177733226       -9.1359355105
 H        -5.8796695751        2.4093948110      -10.5223809016
 H        -8.8976724076        5.4463707276       -7.2634117269
 H        -7.4626165779        6.4274374001       -7.7674772817
 H        -7.7539055173        7.6606314704       -6.1927806197
 H        -7.1022184835        6.4712226393       -5.1110731712
 H       -10.2938261725        4.2783558265       -4.0202241737
 H       -10.6398011480        4.6234835369       -2.2034360885
 H        -8.2249542453        2.8086944922       -2.8825398588
 H        -9.8309506003        2.1285238133       -2.4803197530
 H        -7.2205154901       -0.1912966330       -0.4185949609
 H        -9.0089914307       -0.2693126721       -0.4737576272
 H        -7.2429947076       -0.7530181534        2.1106801575
 H        -8.1239261906       -1.9857757620        1.0796135075
 H       -12.4020330501       -0.4265079299        4.3563205866
 H       -12.2783791801        0.0049247664        2.7393677581
 H       -12.5265564248        2.3537885562        4.6557446236
 H       -13.9382862728        1.4030378734        4.3626950372
 H       -15.2899937389        6.2845584325        3.8796361818
 H       -14.1399913655        5.9946141927        2.5012758304
 H       -13.3854657678        6.0717619400        5.4232013466
 H       -13.0951854888        7.4901189607        4.4503439541
 H        -9.2293236886        8.6798871160        3.5473782244
 H        -7.9847291999        7.8688051557        2.7729878959
 H        -7.8695727658        7.7889739746        4.4678493250
 H       -11.6183640105        7.5833868622        6.1713967637
 H       -10.7146927352        8.6196314849        5.0248136863
 H        -9.7984177980        7.7135686906        6.1966624868
 H        -8.9960116469        5.4138068904        5.9158458704
 H       -10.1982122506        4.1545186468        5.3820908158
 H       -10.6863560936        5.3062388913        6.5828728615
 H       -15.5410832753        4.6622834721        1.0797338590
 H       -14.4115324830        3.3580457436        0.4039918512
 H       -13.7487511550        4.6912687468        1.1321902678
 H       -16.6070404383        2.7306790979        2.3057299739
 H       -15.8951045024        2.0161859622        3.7759226146
 H       -15.5870030609        1.4619991004        2.0186389358
 H       -10.7156806503       -2.4625127381        3.7236153395
 H       -10.5632536599       -1.9752666324        5.3501071905
 H        -9.1590238319       -2.7402290280        4.6001975941
 H        -7.6533284541        0.7035021150        3.8862023588
 H        -7.5520595623       -0.8890066675        4.5617044668
 H        -8.3463097148        0.3441280196        5.4616317465
 H        -5.7403916855        1.6081890072       -0.6962254701
 H        -6.0231654498        2.8146745322       -1.8981964496
 H        -7.1008749823        1.3467728641       -1.8726830326
 H        -5.7731510363        3.2922279184        0.7860093109
 H        -7.2091316583        3.3666146130        1.7354997677
 H        -6.9197209846        4.7137917435        0.4824182283
 H        -7.2039822507        7.3651726999       -3.3808198384
 H        -8.4459271416        8.0365200797       -2.1382383067
 H        -8.2650724870        8.7530538504       -3.8376597497
 H       -10.7421532454        7.5732281585       -2.1336677376
 H       -11.4265709340        6.3684617999       -3.1403740629
 H       -11.1826574816        7.9151441280       -3.7928069350
 H        -5.3946259431        1.9880204434       -6.8246066070
 H        -4.6444308052        3.4847434810       -6.1573703454
 H        -4.1137096775        2.8373026363       -7.7713311249
 H        -4.7616185413        4.6859751485       -9.5090343803
 H        -4.3120850585        5.4511145622       -7.9850210957
 H        -5.7512337916        5.9076400491       -8.8801782075
 Na      -10.0457142701        3.3947316923        2.1196874144
