117

 C        -6.3522023310        1.8940977021       -9.6903543690
 C        -6.8409265750        3.0336589379       -8.8657654164
 O        -7.9965199234        3.4544103838       -9.0212866939
 C        -5.8610378630        3.8753601282       -7.8930638387
 C        -6.8626606505        4.5208429713       -6.7312706506
 O        -6.8482146053        3.9884570428       -5.6359321940
 C        -7.8314198825        5.5837617977       -7.0689123102
 C        -7.8752640803        6.6348697688       -5.8405526438
 C        -9.1785511484        6.6066610158       -5.0995483611
 O       -10.1840205799        6.4449445249       -5.7443359490
 C        -9.2998083345        6.8828148643       -3.6041951966
 C        -8.9745192974        5.4764862889       -2.8438085380
 O        -7.8903809292        5.3667067150       -2.2832421584
 C        -9.8767277398        4.2306749649       -2.8908166630
 C        -9.2383668871        3.0157123260       -2.3424274902
 C        -8.8813449634        3.2698562209       -0.8197558932
 O        -9.5378989937        3.9525292469       -0.0588409745
 C        -7.6715882671        2.4256942242       -0.1977191299
 C        -8.2915587705        1.2720853953        0.7021655066
 O        -8.9383610565        1.4952587861        1.7016837603
 C        -8.2412691018       -0.1821066144        0.3568333629
 C        -8.2960462164       -1.1011890283        1.5662993431
 C        -9.5882545000       -0.8240147383        2.2845465164
 O       -10.6897211991       -0.9917562174        1.7385340170
 C        -9.5966528160       -0.5206132194        3.7849071303
 C       -10.6362099490        0.6411675045        3.9619040434
 O       -10.2600112950        1.7369367247        4.3414693026
 C       -12.1428641084        0.3758190009        3.7515921345
 C       -12.9129173754        1.6688843392        3.9470698256
 C       -13.0856378121        2.5350682352        2.7264577630
 O       -12.1769921604        2.6169097879        1.9015883972
 C       -14.4749269714        3.3688917321        2.4315204806
 C       -14.3507755342        4.3821113115        3.5870360609
 O       -14.3249370990        4.0419265273        4.7516020236
 C       -14.0916387391        5.9078055587        3.2536295545
 C       -13.1439629078        6.4304681211        4.3401838773
 C       -11.7262130685        5.8356449564        3.9984091563
 O       -11.7596667415        4.8054650414        3.3952207321
 C       -10.3788351793        6.3254099503        4.7824058461
 C        -9.3136879208        6.5467192130        3.6656378068
 O        -9.1665145866        5.6850063150        2.8219614610
 C        -8.7397728940        7.9155621554        3.4781178972
 C       -10.7922310422        7.5705265864        5.5115959009
 C       -10.0540719854        5.1736293402        5.7776939715
 C       -14.4197140291        3.8635346213        0.9948679571
 C       -15.7105227091        2.4239473508        2.6649576083
 C        -9.8419872439       -1.8358835102        4.5253184382
 C        -8.1846163675        0.0461822451        4.4525369342
 C        -6.6075060187        1.8843096493       -1.2584099772
 C        -6.9098438662        3.4150431597        0.7303759911
 C        -8.2468535602        7.9426387805       -3.0541358573
 C       -10.6799799610        7.3985807097       -3.2336351951
 C        -4.7228011626        2.9982789591       -7.1971341690
 C        -5.2152669750        5.0121653252       -8.6703887272
 H        -7.2833865716        1.3545664739      -10.0769418453
 H        -5.5899976562        1.2276438697       -9.3008510825
 H        -5.8872918816        2.4059199166      -10.5782055596
 H        -8.7699019993        5.0916625108       -7.1638044742
 H        -7.5456727148        6.1129341699       -7.9838603296
 H        -7.7467445046        7.6555400257       -6.1267524910
 H        -6.9703931936        6.4576875939       -5.1877806521
 H       -10.1503295580        3.9809428513       -3.8999995633
 H       -10.7321782186        4.4276777474       -2.3099907841
 H        -8.2728490441        2.7366941798       -2.8513196930
 H        -9.9071360927        2.2059112521       -2.5380033259
 H        -7.3951447046       -0.4644467066       -0.3057636512
 H        -9.1320903982       -0.3070593867       -0.2510968832
 H        -7.4697623581       -0.9063331032        2.1445981889
 H        -8.3587917760       -2.1369439832        1.1653868003
 H       -12.5431225494       -0.4321736073        4.4352089373
 H       -12.3874612568       -0.0565682260        2.7300755594
 H       -12.4959123493        2.2817734856        4.8319730032
 H       -13.9356383042        1.3563643331        4.2992609518
 H       -15.0826528855        6.4794857896        3.2629060188
 H       -13.4944145753        6.0417647066        2.3476804161
 H       -13.4485635722        6.1852069425        5.3787114381
 H       -13.0521797604        7.5414804779        4.3031448533
 H        -9.6114011165        8.4150196840        2.9473233952
 H        -7.9138405470        8.0722288964        2.8198254893
 H        -8.3842004685        8.2984153786        4.4052059847
 H       -11.4373740925        7.2753133091        6.3272694432
 H       -11.3505129873        8.2258089845        4.8778711094
 H        -9.8821181129        8.1160367167        5.8212308990
 H        -9.1752417005        5.4653767731        6.3228468548
 H        -9.8572427024        4.2999372610        5.1609092077
 H       -10.9062185566        4.9380605017        6.3799735168
 H       -15.2023202592        4.5762718634        0.9013469171
 H       -14.6012596874        3.0173553231        0.3092617911
 H       -13.5031141829        4.3627906219        0.7446433291
 H       -16.6449465822        2.9555074701        2.3662190366
 H       -15.7152362507        2.1274383132        3.6929224479
 H       -15.6785192232        1.5555702234        2.0506951709
 H       -10.7899148122       -2.3335735987        4.2784832076
 H        -9.8577059190       -1.6689711258        5.6239490529
 H        -9.0238514728       -2.5316936983        4.4019324510
 H        -8.0914450931        1.1221564457        4.1563099124
 H        -7.2810512150       -0.5557499110        4.2393704163
 H        -8.2937617639        0.0446720231        5.5372870942
 H        -5.7633641476        1.4133737182       -0.7965154901
 H        -6.2497993308        2.7148443350       -1.8328727394
 H        -7.1070322954        1.1933185366       -1.9588537340
 H        -6.2503424832        2.8652233538        1.4038205143
 H        -7.6017643696        3.9773799169        1.3300292396
 H        -6.3766141950        4.0751370694        0.0966343324
 H        -7.2534653235        7.7155118676       -3.2803569075
 H        -8.5334463067        8.0088364546       -2.0104677759
 H        -8.5354189250        8.8681865028       -3.4776460241
 H       -10.7524099995        7.7298057995       -2.1591518243
 H       -11.5193498232        6.6536468603       -3.3432849773
 H       -11.0202760607        8.2574553970       -3.8058151040
 H        -5.2183201500        2.2451272020       -6.6155875448
 H        -4.1405416065        3.6316656190       -6.5067039836
 H        -4.1735061838        2.4479307950       -7.9511428509
 H        -4.4847187721        4.6106892135       -9.4159241424
 H        -4.7289190534        5.7146741662       -7.9985405635
 H        -5.9453105466        5.6395693978       -9.2235901079
 Na      -10.1594491962        3.6008945067        2.2009706284
