117

 C        -6.2613011601        1.9497629315       -9.6525310859
 C        -6.8091754108        3.1572480663       -8.9024564944
 O        -7.9911962683        3.5263941927       -8.9834454368
 C        -5.9070408084        3.9046399386       -7.8349256860
 C        -6.9201072369        4.4446441993       -6.7303244374
 O        -6.8915534554        4.0463758015       -5.5858009814
 C        -7.8021538631        5.6346227562       -7.1018678975
 C        -7.8114908231        6.5859343336       -5.8971796888
 C        -9.2164067484        6.6828586599       -5.1956466233
 O       -10.2395647861        6.5036539990       -5.7762475447
 C        -9.3185486339        6.8447186681       -3.5269425287
 C        -8.9054985360        5.4377062446       -2.8919569165
 O        -7.8237077133        5.3110846925       -2.4343682143
 C        -9.9266713182        4.2222743815       -2.8940088538
 C        -9.1613216927        2.9983361212       -2.2737757430
 C        -8.7995527267        3.2436087025       -0.8264249006
 O        -9.5872690010        3.9455576733       -0.2285890976
 C        -7.6084936941        2.4673232921       -0.1542163988
 C        -8.2513666034        1.3321810166        0.6529111659
 O        -8.8843368283        1.6582637678        1.6454483601
 C        -8.1725369893       -0.1265513751        0.1559239471
 C        -8.2228416271       -0.9981292958        1.3976399975
 C        -9.5360790088       -0.8318563609        2.2689627037
 O       -10.5834715617       -1.0639762512        1.7871544521
 C        -9.5851286012       -0.5874588806        3.8757734953
 C       -10.6391208392        0.6152818177        4.0450901498
 O       -10.2577402459        1.7353281340        4.3118822995
 C       -12.1344803163        0.3664045886        3.7247945150
 C       -12.9800219229        1.6950613481        4.0130843071
 C       -13.1765644494        2.5354028885        2.7321829349
 O       -12.2941486867        2.7220627382        1.9102626312
 C       -14.4807348816        3.3214986788        2.5251161573
 C       -14.4049868195        4.3911782322        3.6668388514
 O       -14.4412938266        4.0006942727        4.8395517755
 C       -14.1441663978        5.9000149447        3.3944490317
 C       -13.1673442892        6.4078146411        4.4152839589
 C       -11.8376587838        5.7758598218        4.1360722427
 O       -11.7328540150        4.8514325033        3.3363083250
 C       -10.5149735874        6.2908008935        4.7777001885
 C        -9.3978793289        6.4963249410        3.5810120992
 O        -8.9925331637        5.6653215567        2.7729972563
 C        -8.7437426047        7.8706044156        3.5884786855
 C       -10.7916815501        7.6221539109        5.5152430476
 C       -10.1352776464        5.1704474655        5.7577643784
 C       -14.5372764272        3.9590967325        1.1021356553
 C       -15.7033747708        2.3335039519        2.6229365443
 C        -9.7784200054       -1.9435356255        4.4662291122
 C        -8.2848683438       -0.0444584002        4.4834467893
 C        -6.6254720336        1.9482107454       -1.2447383064
 C        -6.8289165548        3.5551512083        0.7342448892
 C        -8.2276569377        7.9098156429       -3.0885409979
 C       -10.6693259279        7.3035557500       -3.1452672056
 C        -4.8290106808        3.0732732444       -7.1402405398
 C        -5.1774942839        4.9883940948       -8.6122259389
 H        -7.0286211830        1.2611752180       -9.7820861949
 H        -5.3982494455        1.5288812695       -9.0969003080
 H        -5.8571963170        2.1964815438      -10.5869736457
 H        -8.8399239272        5.2303595564       -7.1423192710
 H        -7.5687148910        6.1649564503       -8.0382927962
 H        -7.3622761241        7.5872637036       -6.1271474678
 H        -7.0910776201        6.1874520253       -5.1441117162
 H       -10.1903063629        3.9541088296       -3.9211109829
 H       -10.7830507949        4.4561226148       -2.2973741322
 H        -8.2640723198        2.7158808486       -2.8010204024
 H        -9.8023401394        2.1580855327       -2.2673603074
 H        -7.2526846302       -0.3368157640       -0.4707563310
 H        -9.0590521442       -0.3218490481       -0.5085425739
 H        -7.2987055659       -0.8214573016        1.9321239564
 H        -8.3165617007       -2.0376432844        1.0741919458
 H       -12.4488348920       -0.6236682895        4.2531469645
 H       -12.3277654150        0.1094651656        2.6848096135
 H       -12.3669925109        2.4237323419        4.6630845929
 H       -13.9461480303        1.5235573498        4.6076102865
 H       -15.1564236271        6.3663652090        3.6362083071
 H       -13.7298108589        6.1154011486        2.4078587414
 H       -13.5588118330        6.0954285958        5.4702987611
 H       -13.0054886777        7.4736878625        4.4625282539
 H        -9.4232617058        8.6639957000        3.3051979133
 H        -7.9523909580        7.9465710396        2.8204890294
 H        -8.1381395471        7.9133007519        4.4952539290
 H       -11.7198441443        7.5109295600        6.1215170238
 H       -10.9586198541        8.4483202222        4.8293837896
 H        -9.8933971875        7.8733913649        6.0755673578
 H        -9.1193355979        5.3611011100        6.0558971493
 H       -10.2352973608        4.2009390536        5.2922107281
 H       -10.8531088601        5.1697710265        6.5742221524
 H       -15.4634889686        4.4880253237        1.0988090458
 H       -14.4838057144        3.1926980326        0.3220595092
 H       -13.7545441362        4.6797551112        0.8703206716
 H       -16.5719698355        2.8238356111        2.1732682325
 H       -15.8977659246        2.0184311518        3.6013266141
 H       -15.5736462004        1.4748365160        1.9337972905
 H       -10.5254721287       -2.3376927753        3.7964396291
 H       -10.2397316584       -2.0203267021        5.4599880229
 H        -8.9048560842       -2.6059973191        4.5165220003
 H        -7.9298233058        0.8573431840        3.9853925666
 H        -7.5282625174       -0.8774127045        4.4500816137
 H        -8.4305924637        0.1763938563        5.4853914928
 H        -5.7035793895        1.5270420202       -0.7504152628
 H        -6.2471828406        2.7302871285       -1.8657177849
 H        -7.1300765238        1.2123098841       -1.8374851259
 H        -5.8740859863        3.0392895768        1.0010318771
 H        -7.3262135371        3.7611215183        1.6718365424
 H        -6.6531963937        4.4678769210        0.1549301167
 H        -7.2106219539        7.5462852738       -3.3454216942
 H        -8.4582249710        8.1624074266       -2.0515375956
 H        -8.4203355261        8.7708891944       -3.7164603384
 H       -10.7212527651        7.7958244144       -2.1546233629
 H       -11.4485463695        6.5152181965       -3.0951550545
 H       -11.1242827174        8.0529829987       -3.8709728563
 H        -5.2935297793        2.1262012803       -6.7361689859
 H        -4.4310099834        3.6611427155       -6.3166784852
 H        -4.1091094205        2.7664051948       -7.8915901685
 H        -4.7504882060        4.5082915936       -9.4872679219
 H        -4.3816833347        5.4648095336       -8.0191251199
 H        -5.8023729719        5.7907452494       -8.9874681850
 Na      -10.0991563680        3.4199424022        2.0976033652
