117

 C        -7.2082160642        1.7049971523       -9.8083085031
 C        -7.3123879175        2.8854468028       -8.8167606771
 O        -8.3692604472        3.2700451452       -8.3233198351
 C        -5.9765705719        3.5372693874       -8.2765334058
 C        -6.1698152805        4.2922638118       -6.9090594621
 O        -5.5281644049        3.8971148057       -5.9627327885
 C        -7.1759030510        5.4387244746       -6.7979026176
 C        -7.3903627283        5.9046291541       -5.3109648775
 C        -8.8675620033        5.9710497457       -4.8329120670
 O        -9.6248993372        5.1684236236       -5.3173100764
 C        -9.3524029070        6.8005163240       -3.5042338867
 C        -9.4956577122        5.8349744197       -2.3016006910
 O        -8.7477038303        5.9028703382       -1.3547619623
 C       -10.6233939690        4.7337172947       -2.1186266147
 C       -10.1438274629        3.2811302125       -1.9095758519
 C        -9.4654543547        3.1084032748       -0.4673950322
 O        -9.8673870006        3.8301489508        0.4358871386
 C        -8.2342594005        2.1770726896       -0.2408798700
 C        -8.5138601683        1.1711505617        1.0365810005
 O        -8.6224798610        1.7098895129        2.1121036142
 C        -8.6362059343       -0.3738643331        0.8165497086
 C        -8.4824887683       -1.0109880897        2.2037183603
 C        -9.8420747742       -0.9041756408        2.9456645117
 O       -10.8832845673       -1.1159311240        2.3769508241
 C        -9.7834511768       -0.4113809669        4.4317112355
 C       -10.7046827540        0.9668814063        4.3929090319
 O       -10.2328259210        2.0275258893        4.7173630290
 C       -12.2021505814        0.8227381515        4.1123799994
 C       -12.9657179286        2.1916716217        3.8896454268
 C       -12.8366173227        2.6694541042        2.4260262285
 O       -11.9356403858        2.2493631339        1.7249895936
 C       -13.9796026822        3.6182594119        1.8115050257
 C       -14.1529150368        4.8228606406        2.8156740127
 O       -14.5752641719        4.5715860550        3.9545582708
 C       -13.8467288017        6.2417564866        2.4767382282
 C       -12.7525716329        6.7406025212        3.4434599199
 C       -11.4849368129        5.9190937136        3.7152253610
 O       -11.4281361333        4.7254343612        3.5355422058
 C       -10.2878067636        6.6463342082        4.3086742987
 C        -9.0680082323        6.5899658546        3.2211134750
 O        -8.6034939768        5.5349671693        2.8307739272
 C        -8.2382409810        7.7881838451        2.7539954233
 C       -10.5573388255        8.0120012823        4.9050836775
 C        -9.5571067614        5.7225321987        5.3663564764
 C       -13.5036828760        4.0263315138        0.3848282458
 C       -15.3499112639        2.9116950157        1.8336079805
 C       -10.4739160779       -1.3297058100        5.3616232226
 C        -8.4213049223       -0.0071550107        4.9217080735
 C        -7.8898019896        1.3629218973       -1.4840848201
 C        -6.9262249327        3.1034532173        0.0071530342
 C        -8.3079481538        7.8499275877       -3.1588272158
 C       -10.7353251518        7.4019899385       -3.7412990834
 C        -4.9195553377        2.3983482964       -8.0459882839
 C        -5.4324142175        4.4736907422       -9.3815077199
 H        -7.1106884279        0.7796155173       -9.2735023041
 H        -6.4125144219        1.8386988029      -10.5091115385
 H        -8.0776810593        1.6699363974      -10.3655525677
 H        -8.1318212152        5.1488570229       -7.3215076387
 H        -6.8918670365        6.3310076501       -7.3808946915
 H        -6.8531510802        6.8639956524       -5.1239708020
 H        -6.9704263880        5.1121403198       -4.6806883657
 H       -11.3162150126        4.7445910051       -2.9797121447
 H       -11.3255757889        5.0620481097       -1.2939580864
 H        -9.4312763143        3.0068856519       -2.6429741783
 H       -10.9829647604        2.5446788527       -1.8712962482
 H        -7.8764288846       -0.7136545130        0.0777764344
 H        -9.6913277894       -0.5088552312        0.3908257652
 H        -7.5089152209       -0.7112952059        2.6620993527
 H        -8.3645798927       -2.0440011234        2.1197933571
 H       -12.5710694678        0.4474202458        5.0320547462
 H       -12.4123561884        0.1465466810        3.2733380240
 H       -12.6448989960        3.0877794342        4.4552800997
 H       -14.0005582653        2.0461499893        4.2612366201
 H       -14.7530687900        6.8623001983        2.7460835615
 H       -13.6486095175        6.4957585656        1.4019667603
 H       -13.2290274404        6.9729407669        4.3826794739
 H       -12.4559175520        7.6729941420        2.9343305883
 H        -8.9645856465        8.4407016488        2.3572288126
 H        -7.4829624350        7.4126550687        2.0532421803
 H        -7.8557168258        8.4573732899        3.5349439306
 H       -11.4996910460        8.1887749612        5.4434645927
 H       -10.5883367549        8.7834086370        4.1346892256
 H        -9.7685023774        8.2555291591        5.5792902918
 H        -8.5547673437        6.1355748163        5.4072116823
 H        -9.5363164385        4.6980627663        4.9878808601
 H       -10.0379692398        5.7337078493        6.3596207480
 H       -13.9137250869        5.0121290387        0.0981349262
 H       -13.7727110349        3.2437371384       -0.3245029536
 H       -12.3969946786        4.0674234552        0.4345757961
 H       -16.1314037758        3.5885744963        1.5405637922
 H       -15.5507847951        2.4788191677        2.7919507873
 H       -15.3511579624        2.2157413872        0.9446835679
 H       -11.4906450726       -1.6275860478        5.1492987142
 H       -10.4915627786       -1.0207183809        6.3839983162
 H        -9.9408895129       -2.3082787540        5.3972373669
 H        -8.1171476874        0.9784477893        4.5969204059
 H        -7.6958721464       -0.7971782018        4.6241202062
 H        -8.5436783045        0.0041293079        5.9444309744
 H        -6.8441244632        0.9285875780       -1.3061285823
 H        -7.7209721539        2.0508348794       -2.3401844997
 H        -8.6591172641        0.6670106473       -1.8083137757
 H        -7.1992030941        4.1323485177       -0.1134783247
 H        -6.0829662227        2.8590595736       -0.5947223044
 H        -6.5802883369        2.9745654349        1.0217905844
 H        -7.3117708310        7.3261909515       -3.0944584590
 H        -8.5841947683        8.4329828806       -2.2665205097
 H        -8.1515332373        8.5241699489       -4.0015508381
 H       -11.0718827786        7.6490082837       -2.7835822579
 H       -11.3662155415        6.6913472867       -4.1875223933
 H       -10.7017508505        8.2652696031       -4.4145297311
 H        -5.3576926732        1.3835120192       -7.9816965218
 H        -4.4251380210        2.5172110909       -7.1207047310
 H        -4.1414964818        2.3168082200       -8.7763101405
 H        -5.6617706681        3.9856244072      -10.3169891359
 H        -4.3345237782        4.6093451336       -9.2485545834
 H        -5.9255779101        5.4460416503       -9.4631286408
 Na       -9.8179219973        3.4460173483        2.6427986271
