117

 C        -7.3656354766        2.1895856271      -10.2608428002
 C        -7.2394569479        2.1894187612       -8.7396901237
 O        -7.8054617641        1.3268479595       -8.0523454524
 C        -6.1075785876        3.2414914277       -8.2392471396
 C        -6.4068574859        3.8689223144       -6.8177071392
 O        -5.8767851926        3.5087249679       -5.7625634193
 C        -7.6265058001        4.9014446972       -6.8747562363
 C        -7.7853051067        5.6334073565       -5.5308365207
 C        -9.1287654762        5.8415140848       -4.9094522142
 O       -10.1296436773        5.4224720472       -5.4221061958
 C        -9.1472434456        6.6814034817       -3.5572179578
 C        -9.2529147609        5.6860181154       -2.3100371859
 O        -8.6210204109        5.9527111528       -1.3296536172
 C       -10.3149324836        4.5776415788       -2.2897079819
 C        -9.8642596832        3.1637835299       -1.9592977337
 C        -9.2463323817        2.9089617996       -0.5221717137
 O        -9.4916795070        3.5921415138        0.4339260203
 C        -8.0894255780        1.6861817974       -0.4963365151
 C        -7.9826885139        1.2556519619        1.0604319679
 O        -7.4911997548        1.9900586657        1.9006033469
 C        -8.1990971327       -0.2000151351        1.4545345954
 C        -8.4566425150       -0.4157860144        2.9477734144
 C       -10.0217630549       -0.8229665918        3.2396215135
 O       -10.7422525936       -1.3967080339        2.4274479149
 C       -10.5011046683       -0.4727548541        4.6583416601
 C       -11.1594574735        1.0070124938        4.5363978824
 O       -10.4564161410        1.9956973642        4.6244528431
 C       -12.7346468246        1.0570420772        4.5188671695
 C       -13.3237765905        2.4679848942        4.2147655067
 C       -12.9896518663        2.9011608031        2.8173207364
 O       -11.9887938011        2.4177865527        2.2777858795
 C       -13.8956653146        3.9497227666        2.1001610421
 C       -13.7320904687        5.3164091703        2.9725713889
 O       -13.7305973218        5.2395918119        4.1650074273
 C       -13.8227342777        6.6205058103        2.2853478115
 C       -12.6170210122        7.4349584579        2.5984402137
 C       -11.3535191121        6.5652547935        2.9821376199
 O       -11.4044202890        5.3760615489        2.6624548300
 C       -10.1718754960        7.1017041008        3.8914138056
 C        -8.8150910792        6.5867893113        3.1654281463
 O        -8.6560888446        5.3994037062        3.0363049650
 C        -7.8196420420        7.6292186890        2.6224103971
 C       -10.1855223816        8.6800282725        4.0436163853
 C       -10.3978127314        6.4762519333        5.2985168508
 C       -13.3184934646        4.0286184458        0.6809951707
 C       -15.4116875995        3.5002471772        2.2558401672
 C       -11.3540545307       -1.6275064048        5.0082896321
 C        -9.3695979922       -0.4025320250        5.7000843022
 C        -8.4485017752        0.4712770363       -1.3371598855
 C        -6.6982360286        2.3351819637       -0.8303666967
 C        -7.9085180873        7.5905605044       -3.4442997503
 C       -10.3538039547        7.6250503388       -3.5475584089
 C        -4.8116158936        2.4852439749       -8.1861850123
 C        -5.9657888242        4.4562277724       -9.2891226712
 H        -6.4148761317        2.1709989012      -10.7692436151
 H        -7.7918387283        3.1547761580      -10.5984287852
 H        -8.0181059204        1.3888995384      -10.6025146849
 H        -8.5721365576        4.3909296320       -7.1560128932
 H        -7.4303080868        5.6502620670       -7.6597690902
 H        -7.2480056474        6.6337824918       -5.4901068487
 H        -7.1868947036        5.0726064601       -4.7518855302
 H       -10.7283392989        4.5451697150       -3.2984781713
 H       -11.0710528249        4.8175455721       -1.6154209564
 H        -9.1192355944        2.7974840236       -2.7343772612
 H       -10.6969319782        2.4236132393       -1.9181647855
 H        -7.3431211956       -0.7680368799        1.2413839659
 H        -9.0470985536       -0.7106344289        0.9555735748
 H        -8.3610593601        0.5373959757        3.5040727102
 H        -7.8063310250       -1.2706480684        3.2975465030
 H       -13.2019969566        0.7480483540        5.5161781150
 H       -13.0260478162        0.1871620174        3.9119668127
 H       -12.9403412993        3.1853078925        4.9722349469
 H       -14.4036461324        2.4144083471        4.3300182098
 H       -14.7493586852        7.1291070070        2.5622622786
 H       -13.9391719972        6.4881338887        1.2759071208
 H       -12.7428728881        8.2891740979        3.3204066040
 H       -12.4312215494        7.9572674916        1.6578785946
 H        -7.9678897922        7.6460250345        1.5108398400
 H        -6.8308690398        7.1839759561        2.6119733626
 H        -7.7430931891        8.5374639486        3.2027697936
 H       -10.9522540793        8.9481109266        4.8023983046
 H       -10.2686865963        9.3228127504        3.1766128691
 H        -9.2058419261        9.0415276038        4.4576470134
 H        -9.6974212001        6.8729777936        6.0460519313
 H       -10.4107979506        5.3733561391        5.2506553429
 H       -11.4143714727        6.8187050921        5.5236216854
 H       -13.7506421758        4.8886124656        0.1520211376
 H       -13.5412041709        3.0959129957        0.0834780988
 H       -12.2094946115        4.0705918807        0.6081741279
 H       -16.1037933770        4.0033842214        1.4978564556
 H       -15.7197261258        3.7429565889        3.2692226962
 H       -15.5274590370        2.4157438307        2.1688128696
 H       -12.1114162640       -1.8806193265        4.2619166597
 H       -11.9474759189       -1.4148212611        5.8962268584
 H       -10.8020331494       -2.5394181922        5.0965940939
 H        -8.8696264552        0.5315727698        5.5349499842
 H        -8.6122664651       -1.1320588667        5.5964564249
 H        -9.8135208571       -0.3710428196        6.6874722140
 H        -7.5958498940       -0.1826254467       -1.5383312556
 H        -8.7051650283        0.7302119270       -2.3850033863
 H        -9.3632691668       -0.0685302574       -0.9339244571
 H        -6.5114256256        3.3868638291       -0.5207913990
 H        -6.5773310903        2.2783532136       -1.9159990846
 H        -5.8812128175        1.7607460890       -0.4224315087
 H        -6.9442560148        7.1007856677       -3.3642909737
 H        -7.9679228833        8.1725465263       -2.4590825223
 H        -7.7200774800        8.3787218132       -4.2210285028
 H       -10.5147824942        7.9744757194       -2.5389096197
 H       -11.1731597157        7.0807330634       -4.0185079609
 H       -10.0958474564        8.3859303038       -4.2158351330
 H        -4.0103910373        3.2250853274       -8.1773990892
 H        -4.6901921112        1.7697031490       -8.9922420273
 H        -4.6825112517        1.8693107417       -7.3030938682
 H        -5.4842282613        4.1435535216      -10.1936520676
 H        -5.3923266621        5.2485394930       -8.8421404507
 H        -6.9514566670        4.7342399848       -9.6252509391
 Na       -9.7847653373        3.4145333523        2.9175469606
