117

 C        -7.4382690840        2.0309249298      -10.3102836415
 C        -7.1728678152        2.2869589292       -8.8433906423
 O        -7.9269262868        1.8791815254       -7.9867026397
 C        -6.0062702515        3.2898014423       -8.3864389242
 C        -6.4735643813        3.9159991399       -6.8896102455
 O        -5.8398010954        3.5639927461       -5.9503254366
 C        -7.7358148304        4.9551776915       -6.7536145104
 C        -7.6280752411        5.6002791994       -5.3501060581
 C        -8.9712943947        5.8520503426       -4.7232359863
 O        -9.9098802680        5.2049655546       -5.1442820746
 C        -9.2142901221        6.7064475436       -3.3835079397
 C        -9.2986565368        5.6659850694       -2.2246011552
 O        -8.4666343631        5.7176379079       -1.3368898408
 C       -10.4223535464        4.5976337168       -2.2749094151
 C       -10.0095799495        3.1477521133       -1.9663127510
 C        -9.3094226621        2.9397747041       -0.5945104864
 O        -9.5485956510        3.6694879514        0.3447644567
 C        -8.1085669470        1.8955890417       -0.5863724250
 C        -8.2291791476        1.3619925662        0.9169330530
 O        -8.1277153041        2.1181989049        1.8740226272
 C        -8.4202394924       -0.0975644501        1.2060034582
 C        -8.3959717476       -0.4178015852        2.7262812981
 C        -9.8124910121       -0.8101957001        3.1586211724
 O       -10.6158954870       -1.3334319658        2.4575857019
 C       -10.3526721239       -0.4579856575        4.6724525207
 C       -11.1346055790        0.8814698059        4.6068058574
 O       -10.5390474382        1.9492190127        4.6856904315
 C       -12.6958495447        0.8901060776        4.5562386905
 C       -13.3046869669        2.2130204948        4.1555378732
 C       -12.8696422707        2.7949009817        2.7773789595
 O       -11.8879663852        2.4049062553        2.1995235598
 C       -13.8022259279        3.8715169034        2.0982620414
 C       -13.7684422957        5.1484547750        2.9585643108
 O       -14.0301360161        5.0673856871        4.1499442498
 C       -13.7771505188        6.5204813721        2.3685595399
 C       -12.5323391743        7.4052819083        2.6570091019
 C       -11.3497167135        6.5021994637        3.0945915245
 O       -11.3672162620        5.3298472269        2.8516652973
 C       -10.1120022294        7.1461544937        3.9816252893
 C        -8.7616883258        6.6490675658        3.2794631173
 O        -8.5735917190        5.4509941513        3.2784494113
 C        -7.9272933613        7.7260941058        2.5619148551
 C       -10.3227664799        8.6736562943        4.0689813012
 C       -10.1937276195        6.3280899232        5.3151577935
 C       -13.4136113703        4.0718242534        0.6159407253
 C       -15.3094569506        3.4486548555        2.0277512377
 C       -11.5270121258       -1.5110053073        5.1715852324
 C        -9.2007298815       -0.3863160441        5.6581513351
 C        -8.3560008893        0.7434496730       -1.5746765413
 C        -6.6774806793        2.5816509290       -0.8536455516
 C        -7.9993177946        7.6308196075       -3.1140943750
 C       -10.5974836330        7.4185295526       -3.5637017253
 C        -4.7437593908        2.4083861372       -8.0922517622
 C        -5.7423387849        4.4239652619       -9.3827692413
 H        -6.5311412271        1.7610010139      -10.7997644319
 H        -7.7723419882        2.9229482593      -10.8491472244
 H        -8.1350991113        1.2684157118      -10.3808169989
 H        -8.6650920197        4.4020726123       -6.9594507576
 H        -7.7038093169        5.7493965999       -7.5314825854
 H        -6.9952042563        6.4607508606       -5.3240056016
 H        -7.0906361579        4.8545511502       -4.7267527713
 H       -10.8725773243        4.6424503022       -3.2664372529
 H       -11.2488047748        4.8602573442       -1.5450781177
 H        -9.1371220541        3.0126724545       -2.6022578588
 H       -10.8224869284        2.4119591558       -2.0696037430
 H        -7.5259470272       -0.7266684005        0.8679965352
 H        -9.3603273581       -0.4220530700        0.7225793681
 H        -8.0212681074        0.4249279511        3.2572920161
 H        -7.8078667130       -1.2941125515        2.8906792584
 H       -13.0868017126        0.6188682735        5.5373609296
 H       -13.0306648541        0.0409018428        3.9421618440
 H       -12.8813438081        3.0092125913        4.8236194670
 H       -14.4193995649        2.1764337776        4.3173139180
 H       -14.7178746387        6.9669144662        2.7149058221
 H       -13.9632108379        6.3755532099        1.2272566174
 H       -12.7395694073        8.1693825682        3.4008741753
 H       -12.2671868325        8.0218564302        1.7520284747
 H        -8.5541068353        8.0886650971        1.7613161790
 H        -6.9429896564        7.4863343463        2.1070068513
 H        -7.7732308175        8.4654489373        3.3433344714
 H       -11.3275049757        8.8597386592        4.3210233705
 H       -10.0892985723        9.1963534912        3.1432040804
 H        -9.7525378778        9.2267508243        4.7618371515
 H        -9.7564450955        6.9467201515        6.0861313970
 H        -9.5707702395        5.4663566185        5.1749064423
 H       -11.1999940952        6.0755353184        5.6060043832
 H       -14.0907789336        4.7284416444        0.0838524092
 H       -13.4763385860        3.1141663345        0.1783394493
 H       -12.3985904398        4.3570050174        0.4631784791
 H       -15.7710266171        4.2271460789        1.4794765533
 H       -15.8482087337        3.2394238452        2.9762416654
 H       -15.3616824052        2.5190763851        1.4592136004
 H       -12.2616830051       -1.8774332438        4.4781977529
 H       -12.0274551832       -1.1604577453        6.0697460926
 H       -11.0930637272       -2.4873429772        5.4310759558
 H        -8.3642666926        0.2374361135        5.3429483985
 H        -8.8025596798       -1.4076225064        5.7553661687
 H        -9.6042042080       -0.0939300820        6.6467519348
 H        -7.7560599571       -0.1490571967       -1.3936568764
 H        -8.0313484979        0.9658871773       -2.6035070827
 H        -9.3847973378        0.4516665044       -1.5919773611
 H        -6.7222925768        3.6090808075       -1.0467180385
 H        -6.2254060735        2.1698949501       -1.7251557956
 H        -5.9987334420        2.5145724259       -0.0009575169
 H        -6.9741679195        7.2788065261       -2.8386749531
 H        -8.1649986162        8.3430957816       -2.3558966430
 H        -7.8715663244        8.2435118755       -4.0107419376
 H       -10.8333578879        7.8447732125       -2.6051216123
 H       -11.3151973988        6.6852727541       -3.8376130951
 H       -10.4436692903        8.2005724233       -4.3033305091
 H        -3.7643075839        2.8326821761       -8.2335756257
 H        -4.7907377734        1.4466141359       -8.6007430384
 H        -4.7620242595        2.0792143365       -7.0569061399
 H        -5.5030112636        4.0662765989      -10.4227373955
 H        -4.8714319548        4.9860738503       -8.9963805322
 H        -6.6661243458        5.0324144371       -9.4575480497
 Na       -9.5834930148        3.3810181677        2.7038328389
