117

 C        -7.3480383222        1.9817712915       -9.9731255412
 C        -7.4361635200        2.7147086588       -8.6381433693
 O        -8.5232831399        2.9519526466       -8.1390173702
 C        -6.1192220846        3.3365968726       -8.1368118327
 C        -6.2490189464        4.0233010463       -6.6731701468
 O        -5.4084654986        3.9207477272       -5.7897744433
 C        -7.3731912470        4.9352271085       -6.5754703049
 C        -7.3839894133        5.7386679558       -5.2711662850
 C        -8.8354842405        5.7242304702       -4.7797021216
 O        -9.5384109364        4.8030437379       -5.1494538386
 C        -9.1648158049        6.6575404486       -3.6197156923
 C        -9.2898786421        5.6183678557       -2.3890732686
 O        -8.3508496235        5.4917456356       -1.6373041902
 C       -10.6670868345        4.7180969158       -2.2807068223
 C       -10.4066708843        3.2293607611       -2.0022285165
 C        -9.6997295990        2.9870894933       -0.5582659978
 O       -10.1370768645        3.4485609543        0.4558621686
 C        -8.2945637314        2.1233654505       -0.4202305611
 C        -8.3159888907        1.4010324580        0.9711609251
 O        -8.2380335122        1.9613059510        2.0470933945
 C        -8.5961605912       -0.0653753428        1.0237779573
 C        -8.4615197182       -0.7243508928        2.5070040382
 C        -9.8614534810       -0.8232573825        3.1060007579
 O       -10.7804845781       -1.0732730226        2.3161776507
 C       -10.1895437550       -0.4424932970        4.5844689915
 C       -10.9023394663        0.9133109688        4.4377803034
 O       -10.2503589997        1.9329791944        4.4162986648
 C       -12.4323835566        0.8414835638        4.2902429157
 C       -13.0586203490        2.1398484099        3.9405663066
 C       -12.7734167955        2.6520801712        2.5161702468
 O       -11.8482090090        2.2260879246        1.8406514133
 C       -13.7599846887        3.6437186284        1.8296266451
 C       -13.9172922934        4.9270858134        2.7473683243
 O       -14.4172417048        4.7961694765        3.8280744635
 C       -13.6537060277        6.4306509481        2.3585667818
 C       -12.8067854732        7.1198451304        3.5328763778
 C       -11.4209059900        6.3870297481        3.4940930047
 O       -11.3825236722        5.2441373245        3.0210384672
 C       -10.1015267335        7.0286254431        4.1799278419
 C        -8.8953756179        6.6239625252        3.2433664177
 O        -8.6697517893        5.4364913382        3.1394223175
 C        -7.9883391258        7.6146250315        2.4737051253
 C       -10.2218301826        8.5760762293        4.5525103402
 C        -9.8787223624        6.2146734536        5.5044326940
 C       -13.2913368736        3.9647998255        0.3842607241
 C       -15.1816941940        3.0170516476        1.8505661629
 C       -10.9165173612       -1.5008576685        5.4429953168
 C        -8.7231362139       -0.3600029132        5.3274787439
 C        -8.1290124943        0.9748565067       -1.4882786305
 C        -7.0770838434        3.1270262763       -0.4596166356
 C        -8.1196646117        7.7494202552       -3.3100596437
 C       -10.5149890873        7.4393731571       -3.8494969880
 C        -4.8896423837        2.4544350913       -8.1282080110
 C        -5.8412104063        4.5681204486       -9.0997789619
 H        -6.4948677228        1.3908715307      -10.0825160542
 H        -7.4679771478        2.6496254712      -10.7783203260
 H        -8.1946738151        1.3095153259      -10.0450652310
 H        -8.3520613249        4.4040910092       -6.7618058563
 H        -7.3683767437        5.5785682640       -7.4539415566
 H        -7.0322054038        6.7948188167       -5.4109638012
 H        -6.8186578442        5.2594067785       -4.4940074356
 H       -11.3517515139        4.7382350168       -3.1859500684
 H       -11.2582396559        5.2076215990       -1.4900469672
 H        -9.6537205230        2.8906384119       -2.7634466178
 H       -11.3593972913        2.8044021551       -1.9247548581
 H        -7.8648466634       -0.5955303752        0.3620827763
 H        -9.6704466694       -0.3017434358        0.7279411770
 H        -7.8302592910       -0.1851945109        3.1246217729
 H        -8.0803964737       -1.7672510695        2.3556076342
 H       -12.8974181078        0.4380881856        5.2234889107
 H       -12.5103635088        0.1143470836        3.5392642711
 H       -12.7849364394        2.8327648141        4.7797929499
 H       -14.1680587341        2.0394563036        3.8998822895
 H       -14.7381632955        6.7747481241        2.3642717654
 H       -13.1056739731        6.5789350443        1.4279404431
 H       -13.3601664492        7.0121479490        4.5334533601
 H       -12.6968533992        8.1487245164        3.3318080092
 H        -8.5381779635        8.5713789629        2.2768264803
 H        -7.5256494473        7.0973358854        1.6618888419
 H        -7.1796378009        7.9263924911        3.1098322039
 H       -11.1763507268        8.6510060872        5.0394229433
 H       -10.2967774439        9.2913133266        3.7826678387
 H        -9.5963690429        8.9812237613        5.3454941997
 H        -8.9577622091        6.5691877187        5.9692469861
 H        -9.7751099160        5.1659296814        5.2375079111
 H       -10.7010479381        6.3808717814        6.1855453044
 H       -13.6594877674        4.9176157649        0.0896455498
 H       -13.7641819554        3.2654005337       -0.3155213098
 H       -12.2140614651        3.9771824312        0.3161430201
 H       -15.8676492406        3.5767187466        1.1651752425
 H       -15.5344124775        3.2879997315        2.8455332301
 H       -15.2151125943        1.9598219353        1.7813752521
 H       -11.7731760508       -1.9662213395        4.9454337594
 H       -11.3501363888       -1.1481566029        6.3910536315
 H       -10.2931670953       -2.3166622631        5.7180240205
 H        -8.3560431298        0.6354335851        5.1397772630
 H        -8.1002569114       -1.1729704365        5.0568011101
 H        -8.8197898624       -0.4390943561        6.4218556389
 H        -7.3360335823        0.2903725499       -1.2673977411
 H        -8.0874017136        1.3253153710       -2.5246469577
 H        -9.0393722734        0.3078587513       -1.4268789039
 H        -6.5014953137        2.9639085777       -1.3533640602
 H        -6.3810281960        2.9330482170        0.3184618834
 H        -7.3413472237        4.1351901254       -0.4045918023
 H        -7.2045083127        7.3291630913       -2.9237899188
 H        -8.4289844304        8.4691896448       -2.4926772847
 H        -7.8798994592        8.4070006116       -4.1745092671
 H       -10.8816674533        7.6117300524       -2.8668942023
 H       -11.1991728670        6.7950419894       -4.3565208911
 H       -10.3303847723        8.3741949833       -4.2488930419
 H        -4.4533541443        2.3677024152       -7.1578990329
 H        -4.0974987944        2.8665411164       -8.7459758223
 H        -5.0036920760        1.4258389179       -8.3917330557
 H        -5.3993351350        4.1266279923      -10.0103184740
 H        -5.0909979425        5.2484583022       -8.6874318389
 H        -6.7259447963        5.2059993395       -9.2549683578
 Na       -9.7413152663        3.4885424960        2.7956634945
