117

 C        -7.7814007374        2.0172500341      -10.0695879165
 C        -7.1810645398        1.9613823041       -8.6555772528
 O        -7.1735313887        0.8795256412       -8.0733707447
 C        -6.3193847932        3.1063222960       -8.1215563702
 C        -6.6790578778        3.4438957947       -6.6329559076
 O        -5.9577438364        3.1994672923       -5.7045020534
 C        -7.9508885139        4.3332150290       -6.4588476610
 C        -7.9055369182        5.2458147862       -5.2835025319
 C        -9.2772386082        5.7872162189       -4.8874150318
 O       -10.3350671181        5.4083028122       -5.3191430890
 C        -9.1316225122        6.8260843140       -3.6965641660
 C        -8.7866537799        5.8412160625       -2.4931541109
 O        -8.0676393128        6.0853488200       -1.5554952364
 C        -9.6204770552        4.5270040895       -2.4441169087
 C        -8.8276837344        3.2524504574       -2.1607811216
 C        -9.0268914716        2.7005498194       -0.7761510169
 O        -9.8703570050        3.2466965449       -0.0773542600
 C        -8.1055064204        1.5135916544       -0.3259987806
 C        -8.2397514574        1.2510104668        1.2852156385
 O        -8.3303777942        2.2668196484        1.9741354732
 C        -7.9643623569       -0.0839031382        1.8967893547
 C        -8.4137425374       -0.0367163691        3.4343117808
 C        -9.8697854791       -0.5637324134        3.4578084223
 O       -10.4083151236       -1.1270473246        2.5499053770
 C       -10.6657383095       -0.2541231967        4.8172667731
 C       -11.1451203584        1.2050529647        4.6575781170
 O       -10.3596280507        2.1195188552        4.5353944202
 C       -12.6862288633        1.4803764556        4.6565252937
 C       -13.1342817240        2.9025656565        4.2816234610
 C       -13.1778653123        3.1481717274        2.7758036066
 O       -12.3576197655        2.6410896696        2.0271104750
 C       -14.2899954951        4.0195709997        2.2244665501
 C       -14.0123694706        5.4496431512        2.9384691973
 O       -13.9144058740        5.4244903545        4.1233299017
 C       -13.4308783458        6.5641636968        2.0598498902
 C       -12.3418617533        7.4465571080        2.6684170486
 C       -11.0323531762        6.6149051012        2.6154731564
 O       -10.9264106149        5.6169211861        1.9310486121
 C        -9.8569257971        7.0372495840        3.5669070062
 C        -8.5442421170        6.3423541154        2.9901449010
 O        -8.4760514785        5.1339971912        2.9890512957
 C        -7.3399985713        7.2497081609        2.7146721505
 C        -9.7481284663        8.6158967289        3.6566639410
 C       -10.1730406793        6.4324387107        4.9209084366
 C       -14.2487385890        4.1562471294        0.6949391710
 C       -15.6965836769        3.5953734676        2.7194862565
 C       -11.8505227612       -1.2806288941        5.0707234116
 C        -9.7142587766       -0.3031255042        6.0587045057
 C        -8.5403387514        0.1382664964       -1.1286597024
 C        -6.6424845728        1.9102879093       -0.5493998842
 C        -7.9240087824        7.7982920017       -3.7936883055
 C       -10.4118453291        7.5292647305       -3.2883555310
 C        -4.8868586972        2.5673486513       -8.1774667847
 C        -6.3814811787        4.4172037894       -9.0016456577
 H        -6.9866113930        1.8862276432      -10.8439000818
 H        -8.3497245834        2.9982977708      -10.1721312864
 H        -8.5341495360        1.2495166219      -10.3119129420
 H        -8.7988713850        3.6743172046       -6.4276468280
 H        -8.0004769812        4.9315608999       -7.3660441203
 H        -7.3656467888        6.0796974283       -5.5971307166
 H        -7.3847049858        4.8136354479       -4.4473508288
 H       -10.2723076392        4.2668544909       -3.3477039545
 H       -10.2918955936        4.6562694390       -1.5330084257
 H        -7.7865341310        3.2771084523       -2.3990077617
 H        -9.0012871489        2.4234802947       -2.8628429055
 H        -6.8825011470       -0.3073311751        1.8558368569
 H        -8.3525049178       -0.9283177652        1.2999260411
 H        -8.3939002474        1.0092959749        3.7865022291
 H        -7.7432039788       -0.5921218671        4.0234809626
 H       -13.0476020784        1.1632081714        5.6051047889
 H       -13.0646034638        0.8775048010        3.8528950893
 H       -12.5199195323        3.6093172713        4.8125885952
 H       -14.1430548654        3.0879040870        4.5602369623
 H       -14.3829044913        7.2272786580        1.9107359492
 H       -13.1269233533        6.2081439378        1.0959106279
 H       -12.5415661269        7.6621589253        3.7062015695
 H       -12.2483252614        8.3872675684        2.1308744901
 H        -7.5865976454        8.1686097999        2.1188845815
 H        -6.6919750337        6.6951215518        2.0654476302
 H        -6.8365302434        7.4575538432        3.6612711381
 H       -10.4872118346        9.0005169285        4.3947090327
 H       -10.0119560651        9.0756162545        2.7139219122
 H        -8.7631319904        8.9159214149        4.0660228186
 H        -9.3927990743        6.7816806397        5.6018168389
 H       -10.1729858917        5.3357431704        4.8025801508
 H       -11.1701778673        6.7526311406        5.2677782034
 H       -14.9637898827        4.8867474908        0.3371606890
 H       -14.6199775724        3.2070917586        0.2618580718
 H       -13.2957410419        4.3816405211        0.1894715376
 H       -16.4820448376        3.9781845251        2.0490346348
 H       -15.9827094142        4.0138765822        3.6461407573
 H       -15.8510543881        2.5218010250        2.6853827498
 H       -12.7370792135       -1.3132190473        4.4047894673
 H       -12.2180923464       -1.1060931676        6.0940972812
 H       -11.4010832282       -2.2684239661        5.1940245199
 H        -9.0752638081        0.6031670844        6.1266805844
 H        -9.1195191765       -1.2236894078        6.1595484483
 H       -10.2981873659       -0.3174008451        6.9895491116
 H        -8.1432347559       -0.7502858191       -0.7124925769
 H        -8.2992334586        0.2005370361       -2.1466637986
 H        -9.6137389684        0.0134876231       -1.0677889494
 H        -6.0867690149        0.9551602911       -0.7578310128
 H        -6.1529697407        2.3189259257        0.3823771280
 H        -6.5021069882        2.6608900445       -1.3157553397
 H        -6.9822793402        7.4967091160       -4.0359823970
 H        -7.7931300666        8.3432509200       -2.8722846079
 H        -8.1572682872        8.6109760930       -4.4463863695
 H       -10.2079332483        7.8669896079       -2.2195610617
 H       -11.2845995310        6.7874061814       -3.3534386730
 H       -10.4857892843        8.4584575332       -3.8632702434
 H        -4.2126633695        3.4385949953       -8.3190563883
 H        -4.6836584121        1.9238872916       -9.0198895804
 H        -4.6126156068        2.1153505820       -7.2210736283
 H        -5.7800954998        4.3236544954       -9.8528391596
 H        -6.0588538057        5.2848595086       -8.4544079200
 H        -7.3904619310        4.6558045159       -9.2460897171
 Na      -10.1301215234        3.5241289552        2.4528168742
