117

 C       -14.0732795296        3.7964287294       -0.3576776849
 C       -12.9614358845        3.3508380224        0.5695281970
 O       -12.2492848863        2.5926269311       -0.0559425400
 C       -12.6495899429        3.7936725032        2.0225282760
 C       -12.2127186802        2.4866626452        2.8677067771
 O       -11.2523967289        1.8539906177        2.4879591754
 C       -12.7421890200        2.2023451683        4.2931425370
 C       -12.5234885725        0.6798703810        4.5854568282
 C       -13.0656965217       -0.1668507032        3.4490100712
 O       -13.9174338097        0.3365620459        2.8017840618
 C       -12.4025323740       -1.5526124892        2.8904971872
 C       -11.6179469851       -1.1447970831        1.5968565817
 O       -10.4578877657       -0.8269902100        1.6919896596
 C       -12.3679470126       -1.0522975375        0.1252117815
 C       -11.9057333135       -2.1716816734       -0.8234333075
 C       -10.9336622475       -1.6351351903       -1.9305795890
 O       -11.0292148816       -0.4586504221       -2.1743158633
 C        -9.8014174690       -2.5145465178       -2.7008175461
 C        -8.7133843876       -2.5432597656       -1.3887190768
 O        -9.0953144802       -3.0719505669       -0.3586973592
 C        -7.2061490362       -2.0947434181       -1.6975173283
 C        -6.5179232005       -0.9020763697       -1.0191538783
 C        -7.3910183524        0.3443182661       -1.0445220267
 O        -8.5771576767        0.2283106674       -1.1722206814
 C        -6.9001762764        1.8118284586       -0.8318967478
 C        -7.9748405675        2.9748152767       -1.4220833345
 O        -9.0449174917        3.0577173798       -0.8298639187
 C        -7.6896681028        3.7948625662       -2.7185213936
 C        -7.9005654068        5.3213277418       -2.3905362563
 C        -6.8874994469        5.7528549068       -1.2622834810
 O        -6.3529913954        4.8710806832       -0.6086576683
 C        -6.6140066181        7.3275103875       -0.8524342516
 C        -7.1215966189        8.4922047382       -1.7995693970
 O        -7.4364606483        8.3513313005       -2.9744263121
 C        -7.1994577705        9.8050831458       -1.1026499602
 C        -8.1293473740       10.7147013706       -1.9336484424
 C        -9.3242762966       11.0668236010       -1.0394128344
 O        -9.6058931176       10.3452503835       -0.0928813462
 C       -10.2008503515       12.2771940967       -1.1750371800
 C       -10.5247008528       12.7966437660       -2.5439090047
 O       -10.5801701632       11.9964679775       -3.4346913096
 C       -10.9824405800       14.2106195547       -2.7555020228
 C       -11.6511769951       12.0928943590       -0.6297402622
 C        -9.4323766714       13.2553995691       -0.2634963795
 C        -7.1923118775        7.3385904792        0.5293526931
 C        -5.0597659613        7.4322949115       -0.9064552889
 C        -7.0049168686        1.9708019257        0.7389418867
 C        -5.5153562312        2.1529688787       -1.2739760619
 C       -10.3130291824       -3.8536554746       -3.1342645627
 C        -9.3596321502       -1.5927704957       -3.8256384889
 C       -11.2841996965       -2.0430157408        3.8295452932
 C       -13.5380551369       -2.5307775899        2.7956818510
 C       -11.4618208689        4.7492630039        1.9216598054
 C       -13.8456349087        4.5025448360        2.5769050722
 H       -13.9024177610        4.8705549127       -0.5146342121
 H       -15.0876505692        3.5642646759        0.0566662027
 H       -13.9436725223        3.2670503853       -1.2509058034
 H       -13.8302111676        2.5530750022        4.4921744298
 H       -12.1280954748        2.5692887029        5.1100529449
 H       -13.0279138202        0.3944186063        5.5356612377
 H       -11.4911486417        0.4964087584        4.6162469390
 H       -12.2165889101       -0.1839776751       -0.4787960511
 H       -13.5047286651       -1.2170039341        0.2124119671
 H       -12.7996892885       -2.5927484428       -1.3154873079
 H       -11.2876638942       -2.9955189839       -0.3641176770
 H        -7.1698066882       -1.9228724493       -2.7564101605
 H        -6.8343619147       -3.0491802042       -1.4641408549
 H        -5.5860009251       -0.7587463623       -1.3915986047
 H        -6.2877422812       -1.1953940882       -0.0353321903
 H        -8.5012036261        3.4715154853       -3.3897435146
 H        -6.7327550403        3.5264480621       -2.9413416310
 H        -8.8784241195        5.6226065869       -2.0171206496
 H        -7.6374938032        5.8302676802       -3.3121786786
 H        -6.2106600014       10.1900138571       -1.3597226158
 H        -7.4614750770        9.6003127176       -0.0899702700
 H        -8.2791822295       10.2153668815       -2.8768699758
 H        -7.6951250718       11.6902077574       -2.3027239232
 H       -12.0695890013       14.1493219516       -3.0800956441
 H       -10.3906231721       14.8206887610       -3.3224152349
 H       -11.0898853678       14.7702329244       -1.7390436766
 H       -12.0593373597       13.0666805473       -0.2336238234
 H       -11.9148685354       11.4055009404        0.2461356263
 H       -12.3649512296       11.5628455939       -1.2841252824
 H        -9.8129339889       14.1814960583       -0.3625168892
 H        -8.4019923024       13.2492375121       -0.3127397201
 H        -9.5085939066       13.0677469322        0.8525191980
 H        -6.8445316293        8.2258328068        1.0720485878
 H        -6.7573594112        6.4640524253        0.9580852857
 H        -8.3144715930        7.1864748807        0.5496904731
 H        -4.6915854848        8.4340417683       -0.6732393885
 H        -4.8787305197        7.1727520027       -2.0321147191
 H        -4.4678697810        6.7607969714       -0.3395072927
 H        -6.9715939711        0.9901402596        1.1809096758
 H        -7.9114996653        2.5213331747        1.0862509793
 H        -6.0952866163        2.5032734993        1.0097817969
 H        -5.3591521737        3.2333251674       -1.1472496278
 H        -5.3655559613        1.9901055863       -2.3073045404
 H        -4.7912937899        1.4891683475       -0.8328385992
 H       -10.3918692362       -4.5748181456       -2.2910242345
 H        -9.6546677345       -4.2518944077       -3.8518943093
 H       -11.2393470637       -3.8119333574       -3.6523192219
 H       -10.1670657647       -1.4022546302       -4.5904716362
 H        -8.5849165758       -2.1292798312       -4.4158417459
 H        -9.0065338596       -0.5968002318       -3.5086285018
 H       -10.5612573388       -1.2923623124        4.2437892485
 H       -10.6779399566       -2.7885015756        3.2602994717
 H       -11.8233178602       -2.6818552556        4.5931686953
 H       -14.1650724144       -2.5321789740        3.6960856756
 H       -13.1874262644       -3.5010224080        2.5081016834
 H       -14.2907555318       -2.3765364410        2.0151362095
 H       -10.6381618476        4.3426060906        1.3677788318
 H       -10.9649229951        5.0636278751        2.8705394448
 H       -11.5783079530        5.7257954233        1.5115944841
 H       -13.6903681797        5.1352542849        3.4306450209
 H       -14.5265175312        3.8417868330        2.9840341188
 H       -14.4154903701        5.0794137714        1.8089289760
 Na      -10.4392812187        1.1840868137        0.3079559395
