117

 C        -5.8359060694       -6.3016699361        2.3405900759
 C        -6.2468459960       -5.0937441976        3.1675154439
 O        -5.9090611743       -3.9755768560        2.8952993496
 C        -7.1721873216       -5.2799943547        4.5320202476
 C        -7.3376980403       -3.9960491257        5.4596945356
 O        -6.6702259377       -3.9452787999        6.4674844730
 C        -7.9710832256       -2.7264021039        4.7447204878
 C        -7.8673935642       -1.4243899883        5.5488910146
 C        -8.2350554145       -0.2795074119        4.6373335599
 O        -8.2072396260       -0.3329875311        3.3905874868
 C        -8.4509640497        1.0787457198        5.3034900031
 C        -8.2652654355        2.1981002336        4.1439259041
 O        -7.2092511531        2.7505358037        3.9898389453
 C        -9.4650272559        2.5250447032        3.1094199350
 C        -8.8961674573        2.5712699689        1.6392902745
 C        -9.8048857654        3.1390218303        0.6264307942
 O        -9.5212078392        4.2604163800        0.2336540445
 C       -10.9865157066        2.3548450682       -0.0170979019
 C       -12.4253904645        2.9412769003        0.4882328482
 O       -12.5030549230        3.2446782277        1.6824689980
 C       -13.6955561122        2.5791281277       -0.2870058448
 C       -14.4392659865        3.7126461446       -1.0096485573
 C       -13.5123663975        4.9374073281       -1.1855330969
 O       -12.5456377603        4.8985909891       -0.4662963098
 C       -13.9574595906        6.1373423530       -2.0535717212
 C       -12.9834464106        6.0073537083       -3.3076438075
 O       -11.8582744143        5.6425636503       -3.1046076723
 C       -13.4704430435        6.5194153850       -4.6762254121
 C       -12.4133029298        7.2171918457       -5.4725896956
 C       -12.1209062609        8.6294444307       -5.0651976162
 O       -12.7459787968        9.1868276861       -4.2179180029
 C       -10.8579270322        9.2161704968       -5.7661225512
 C        -9.7407563303        9.1860376856       -4.6650137283
 O        -8.9675695966        8.2313533135       -4.6515663874
 C        -9.7616980512       10.3267974194       -3.6590728998
 C        -8.6900521627       10.0177643511       -2.5763738012
 C        -8.7296722215        8.7048795430       -1.9180556727
 O        -9.8180464517        8.3751844759       -1.4142376893
 C        -7.3670874277        7.8533986727       -1.5804962107
 C        -7.3128126954        6.5870183817       -2.4507193534
 O        -7.9038799984        5.5234710268       -2.1614274871
 C        -6.4382709216        6.5726426286       -3.6819151700
 C        -6.0874223443        8.7219113283       -1.7191149156
 C        -7.5143556924        7.4052735220       -0.1232620122
 C       -10.3977738633        8.5401660514       -7.0600561308
 C       -11.2846241736       10.7107040818       -6.1185488890
 C       -15.5346919390        5.9796262432       -2.5448342360
 C       -13.8017006919        7.4883766939       -1.3819841282
 C       -10.7619102939        2.4283892286       -1.5776458167
 C       -10.9557075389        0.9056439190        0.3757595161
 C        -9.9437443281        1.0552737193        5.6795218631
 C        -7.4438165159        1.4078255482        6.4355544508
 C        -8.5176062979       -5.6949316996        3.9437120711
 C        -6.6483332685       -6.4450681269        5.4604708278
 H        -6.2478601360       -7.2762569952        2.5571525045
 H        -4.7552016474       -6.3354251593        2.3611879901
 H        -6.0786329776       -6.0019575837        1.3248645645
 H        -9.0099009491       -2.9296371212        4.3657236004
 H        -7.3967240786       -2.4975329112        3.8486733931
 H        -6.7693209933       -1.2338408906        5.8644120237
 H        -8.2974957309       -1.2367162771        6.5030049190
 H        -9.9359915058        3.4901446952        3.4152560502
 H       -10.1993465334        1.7290605924        3.1628709565
 H        -8.5296526961        1.5882460719        1.2847169953
 H        -8.0475270902        3.1995089099        1.6870395877
 H       -14.3316665688        2.0756552193        0.4825004325
 H       -13.5144149873        1.7126182175       -0.9411421585
 H       -15.3506914613        3.9352524026       -0.4621898639
 H       -14.8364637221        3.3962815963       -2.0131176979
 H       -14.2298413561        7.2681776209       -4.4826078265
 H       -13.8935593255        5.7871220176       -5.2475875438
 H       -12.6134818827        7.4493921303       -6.5710283825
 H       -11.4600765805        6.7308309303       -5.5434442384
 H       -10.7658779232       10.3648543100       -3.1277806515
 H        -9.6901705067       11.2472005567       -4.2041985842
 H        -8.8668705985       10.7318079491       -1.7283307113
 H        -7.7051900349       10.3030561529       -2.8451173832
 H        -6.9855098980        7.1779016812       -4.3402295200
 H        -6.3524373742        5.5514903309       -4.1006190262
 H        -5.3918069646        6.8964916932       -3.4808551169
 H        -6.1517485930        9.7593991842       -1.4094459755
 H        -5.7690678681        8.7921110085       -2.8041557765
 H        -5.3008284098        8.2103354174       -1.2021199540
 H        -7.1819239961        8.1076221833        0.6688627829
 H        -6.7996656394        6.6399169327       -0.0178604983
 H        -8.5469204244        7.0237752534        0.2513008551
 H        -9.4879237522        9.0467182267       -7.3628423557
 H       -11.1457989532        8.5173495386       -7.8668930147
 H       -10.1811264228        7.5603811187       -6.8138035581
 H       -10.3876664503       11.4312196128       -6.3877921853
 H       -11.9152157547       11.1209108821       -5.3312230179
 H       -11.9121819973       10.7098111780       -7.0249942468
 H       -16.1523718912        5.6516398851       -1.6524357490
 H       -15.6270731852        5.3177404646       -3.4746384955
 H       -15.8880784953        6.9653549511       -2.8817405663
 H       -14.4499262873        7.5447473511       -0.4369075656
 H       -14.0019311458        8.3180662727       -2.0362372528
 H       -12.7695122844        7.5905815019       -1.0330882462
 H       -11.3081703785        1.6755259177       -2.0502139909
 H        -9.7229889280        2.3200707691       -1.7772511844
 H       -11.1063196875        3.3496388449       -1.9857267092
 H       -10.7098788826        0.6861828321        1.3812199629
 H       -10.1898866861        0.4467221316       -0.1665191004
 H       -11.8073520286        0.2493387070        0.0845232667
 H       -10.2209170900        0.2553764883        6.3793218057
 H       -10.3904848903        0.8271066699        4.7684412963
 H       -10.3371455906        2.0505200954        5.9869478166
 H        -7.7815496120        1.0618878389        7.3984583504
 H        -7.3633414801        2.4065666788        6.6238313291
 H        -6.4630971776        0.9678860544        6.3283905031
 H        -8.9080845914       -4.8183005719        3.4183778603
 H        -9.3125943468       -6.1555810368        4.5532018340
 H        -8.3314629459       -6.5522327424        3.3009286828
 H        -5.7389637717       -6.2121464603        5.9252949510
 H        -6.5021346181       -7.3028145831        4.8514674475
 H        -7.3380274208       -6.5566215709        6.2819343001
 Na      -10.1667723528        5.9630252319       -1.1238148543
