117

 C        -8.2511817418        1.7068255991       -9.6412151199
 C        -7.5187100644        1.7059494188       -8.2687116821
 O        -7.6887665018        0.7922928051       -7.4711260421
 C        -6.4188586836        2.7574153526       -7.9434160831
 C        -6.4660792146        3.2141196648       -6.4591923038
 O        -5.5606392003        3.2527263316       -5.6727639843
 C        -7.9183553214        3.8168024707       -6.0101284510
 C        -7.7336173939        5.3459730372       -5.7896244632
 C        -9.0840407888        5.9552993409       -5.3104649945
 O       -10.0650515839        6.0223795860       -6.0099811165
 C        -9.2249201783        6.3708213109       -3.6868234122
 C        -8.2823069453        5.3961443188       -2.8826309685
 O        -7.0494577390        5.5468788194       -2.9265883781
 C        -8.8201736035        4.1560284506       -2.2129765884
 C        -7.7686932967        3.5543832608       -1.2108548106
 C        -8.5330024870        2.4958696686       -0.3759601579
 O        -9.6998609701        2.6916698163       -0.0643458603
 C        -7.7280531343        1.1349234283       -0.0405597288
 C        -8.2430642627        0.8370149278        1.5081442131
 O        -8.6139409246        1.7572133697        2.2335090698
 C        -8.1540371703       -0.6103508942        1.9895549797
 C        -8.5543359426       -0.7313804678        3.4741097975
 C       -10.0288741095       -0.3923528672        3.7809633096
 O       -10.8789611104       -0.5994030078        2.9388846376
 C       -10.6411590253        0.2302049089        5.1196580792
 C       -11.1441101410        1.5807081033        4.5395258672
 O       -10.4043445684        2.5572839164        4.5727244245
 C       -12.4767644052        1.6600454491        3.7923536264
 C       -13.1714747189        3.0050044155        4.0704374502
 C       -13.3884334865        3.7957553285        2.7575616882
 O       -12.6470429665        3.7339179069        1.7904643877
 C       -14.6379191787        4.7103466723        2.6930323690
 C       -14.0124188635        6.1322377102        2.8790133298
 O       -13.8703698990        6.6395666861        3.9777987718
 C       -13.4355531628        6.8994175488        1.6461252039
 C       -12.2111292544        7.6963668229        2.1312034913
 C       -10.9649497299        6.6850077003        2.1573327664
 O       -11.0630346204        5.7013259724        1.4289583293
 C        -9.9413308686        6.8334568841        3.2824494124
 C        -8.6089153578        6.2684948664        2.7144143211
 O        -8.5663003289        5.1166092778        2.3248831978
 C        -7.3556878418        7.1135107770        2.6360367544
 C        -9.7265127733        8.3708736710        3.7198762308
 C       -10.4714176010        5.9019232217        4.3765185882
 C       -15.3972150619        4.4476385420        1.4280554159
 C       -15.6448347782        4.3622046464        3.8455065796
 C       -11.8140567491       -0.6836452789        5.5469132368
 C        -9.5449414568        0.4107740600        6.2156084580
 C        -8.1530666394       -0.0655843906       -0.9034682300
 C        -6.1588098545        1.2528353437       -0.0856390869
 C        -8.6565283553        7.7662561773       -3.6926879592
 C       -10.7399692821        6.2913148212       -3.3335969424
 C        -5.0528758732        2.1436742717       -8.2625714953
 C        -6.6280342105        4.0209303463       -8.7810500393
 H        -7.4643860266        1.7897970487      -10.3731376313
 H        -8.7914184472        2.6843709877       -9.8272556553
 H        -8.8882654473        0.8622318021       -9.8095606215
 H        -8.1264541987        3.3995258007       -5.0227828568
 H        -8.7840119860        3.6339419595       -6.6707419048
 H        -7.3950119313        5.8974387220       -6.6432824462
 H        -6.9109031012        5.6263837776       -5.0967631227
 H        -9.1669475616        3.3970873348       -2.9685381704
 H        -9.7216542879        4.4449341765       -1.6631545902
 H        -7.3276803330        4.2720147153       -0.5010382879
 H        -6.9948569509        3.1341220238       -1.9717148885
 H        -7.1876682570       -1.0996818976        1.7227090072
 H        -8.9659377142       -1.1230795449        1.4592418739
 H        -7.8796318910       -0.0340096214        4.0392848945
 H        -8.1758680781       -1.7039121971        3.7223485487
 H       -13.2631539957        0.8616818685        4.0399272198
 H       -12.2983670909        1.4872504532        2.6512808289
 H       -12.6697219465        3.5678309289        4.9040870490
 H       -14.1571869497        2.8207356606        4.5099967196
 H       -14.1489894612        7.6360749508        1.1957948516
 H       -13.0631801911        6.1993015386        0.9868246678
 H       -12.5451294610        8.1313746400        3.1028499794
 H       -12.0513823434        8.5900597608        1.4108564899
 H        -7.3931723242        8.0934962497        2.1117276374
 H        -6.6190512346        6.3934658712        2.2975473796
 H        -6.9531774304        7.3240671465        3.6100323250
 H       -10.5405864004        8.7314149855        4.3848017424
 H        -9.6750386896        8.9164125731        2.7853269589
 H        -8.7341475882        8.4770871853        4.2107632823
 H        -9.9722742093        6.1425879602        5.3234523478
 H       -10.3214210279        4.8396921029        4.1087500677
 H       -11.5528534376        6.0605269932        4.5250050173
 H       -16.3177649846        5.0303518337        1.3973487137
 H       -15.5952190514        3.3720494941        1.2384603456
 H       -14.8274205712        4.8357619058        0.5461295097
 H       -16.6512239108        4.8512246907        3.8094639727
 H       -15.1987142467        4.6142973393        4.7895468231
 H       -15.9407803381        3.3266484834        3.9301347982
 H       -12.4069424466       -0.8258999544        4.6235112799
 H       -12.4370869303       -0.1672505305        6.2836957281
 H       -11.3731183214       -1.5902455657        5.9186637400
 H        -8.6987437764        0.9799232881        5.7944616432
 H        -9.0339244991       -0.5341984410        6.3675500249
 H        -9.8853108708        0.8233715493        7.2036829874
 H        -7.4253732145       -0.7877038004       -0.7313293161
 H        -8.1321009463        0.1878725750       -1.9305828302
 H        -9.1270921641       -0.4754671375       -0.6918874127
 H        -5.7795363391        0.3236164134        0.4174962616
 H        -5.7684109371        2.2036179754        0.3310634514
 H        -5.9363041536        1.2321516031       -1.1553235633
 H        -7.6036056259        7.6806937619       -3.5811287336
 H        -9.0598063248        8.2661939894       -2.8590672243
 H        -8.8851598009        8.4406359071       -4.4928757472
 H       -11.0226584273        6.8643587824       -2.3782639669
 H       -11.0437797427        5.1895485798       -3.3268761034
 H       -11.3972335198        6.6949379869       -4.1057563334
 H        -4.3082183125        2.6944691327       -7.6671334000
 H        -4.9394376353        2.2733261969       -9.3274444780
 H        -5.0445580678        1.0684955479       -8.1263646395
 H        -6.4069678945        3.8383112624       -9.8093075706
 H        -5.9965074942        4.8570769951       -8.4555227717
 H        -7.6577668709        4.3803449065       -8.7282113523
 Na      -10.1859876470        3.5308096784        2.0101416790
