117

 C        -8.1860551863        1.8478844727       -9.7062894287
 C        -7.3551698633        1.7288853935       -8.4658302430
 O        -7.4736600799        0.8214786447       -7.6488552627
 C        -6.3465921230        2.8971872448       -8.0660825862
 C        -6.6328386763        3.2056539500       -6.4826185673
 O        -5.7597333122        3.0462778934       -5.6587528362
 C        -8.0062285951        3.8947911712       -6.0979684944
 C        -7.7260257071        5.3441620246       -5.8086498756
 C        -9.0796572335        5.9773793726       -5.2716681105
 O       -10.0394229097        5.9974249607       -6.0117544169
 C        -9.1850530491        6.6013701147       -3.8147161512
 C        -8.4136892920        5.7101931852       -2.7633316160
 O        -7.2142720200        5.8442193832       -2.5398571673
 C        -9.1516647082        4.4045193549       -2.0479297713
 C        -8.1581293570        3.3839457992       -1.4564255831
 C        -8.7840017246        2.4300757004       -0.4829612776
 O        -9.9139313671        2.5223262659       -0.0964599206
 C        -7.8963721141        1.2576825489        0.0536750126
 C        -8.0994839440        0.8870818739        1.5377279350
 O        -8.2086072905        1.8284152828        2.3132947362
 C        -7.8672077867       -0.5011963160        2.0336174645
 C        -8.4136527605       -0.6200718400        3.5256952673
 C        -9.9290312857       -0.5868959820        3.6600750651
 O       -10.6644397990       -0.9954381129        2.7538102063
 C       -10.5757360405       -0.0651874724        5.0301556914
 C       -11.1897396672        1.4190919183        4.5099027480
 O       -10.3338227747        2.2756672856        4.4940390867
 C       -12.6523328199        1.6811860563        4.0649479670
 C       -13.0876556195        3.1797043153        4.1529679834
 C       -13.3818301154        3.7490226725        2.7349966740
 O       -12.6088262704        3.4488900104        1.8358552975
 C       -14.6894508896        4.6593180258        2.5311962087
 C       -14.1898576086        6.1056401148        2.8326049663
 O       -14.3796585668        6.5195251628        3.9636639102
 C       -13.5996853978        6.9548745853        1.7036341224
 C       -12.1575529520        7.5758663954        2.1442763988
 C       -10.9897312206        6.5480744318        2.2675680407
 O       -10.9812160986        5.6229811620        1.4461135552
 C        -9.8950720055        6.8053956708        3.3920538820
 C        -8.5589704733        6.2284213706        2.8522625284
 O        -8.4858996476        5.0520883915        2.5419397793
 C        -7.2864901408        7.1790332033        2.6798995571
 C        -9.7338393567        8.3641478200        3.5975445804
 C       -10.1894697869        6.0961722392        4.7098264582
 C       -15.1478542699        4.6238462240        1.1141656351
 C       -15.7978220744        4.3047051345        3.5523988230
 C       -11.5753485100       -1.0714979876        5.6756642062
 C        -9.4797856619        0.2569466075        6.0587298559
 C        -8.3204487523        0.1599694705       -0.8593203896
 C        -6.2785529036        1.3783834867       -0.0325971329
 C        -8.4659327476        7.9409346841       -3.8148532387
 C       -10.6500879098        6.6066426534       -3.4171526976
 C        -4.9153262224        2.3733696652       -8.2015315387
 C        -6.6434757630        4.1689771415       -8.9072957134
 H        -7.6774312285        1.9863639407      -10.6190843343
 H        -8.7883860176        2.7413309217       -9.5957050576
 H        -8.8435629944        1.0051303676       -9.7550080713
 H        -8.3458268198        3.5163290453       -5.1354879058
 H        -8.8803042527        3.7110940889       -6.7442213196
 H        -7.3910130535        5.9859986313       -6.6917246334
 H        -6.9629979089        5.4349137949       -4.9802628536
 H        -9.8594820122        4.0363143657       -2.7825766895
 H        -9.7014739097        4.7351655942       -1.2177111665
 H        -7.4301934167        4.0543920043       -0.9785165728
 H        -7.5299530530        2.8832945137       -2.1958787824
 H        -6.8464749742       -0.7964376869        1.9813100058
 H        -8.4414932509       -1.1683158587        1.3785780042
 H        -7.8202650090        0.0286540682        4.1608314859
 H        -8.0396225419       -1.6631243054        3.8211643782
 H       -13.2954861902        1.1366618436        4.7694355515
 H       -12.8110790526        1.3812635815        3.0693885993
 H       -12.3300318103        3.7364783860        4.7455660657
 H       -14.0215421764        3.2645205790        4.6878627370
 H       -14.2995378042        7.8217373982        1.6640005760
 H       -13.4192275208        6.4663100261        0.7793793773
 H       -12.2895489818        8.3325871880        2.9123290705
 H       -11.8120542361        8.0463023042        1.2486380626
 H        -7.6029979271        8.1788743568        2.3518175911
 H        -6.5057577464        6.6037647894        2.1594120193
 H        -6.8047544877        7.4532365798        3.5975152885
 H       -10.6559880457        8.7871634296        3.8660389802
 H        -9.3515512920        8.7210212207        2.6834242904
 H        -8.9986708656        8.5612667278        4.3788017450
 H        -9.2873949997        6.1755882759        5.3092788748
 H       -10.2709911887        5.0332604028        4.5029395716
 H       -11.0192865639        6.4946709959        5.2678384786
 H       -15.5497337963        5.5232881392        0.7454067770
 H       -15.9500781318        3.8917300563        1.0218679570
 H       -14.3930872279        4.3258148367        0.4216046079
 H       -16.7229609493        4.9027757744        3.3111033278
 H       -15.4788823536        4.3555638879        4.5977263135
 H       -16.1028006788        3.3102840404        3.5575615412
 H       -12.3256729679       -1.5229937431        4.9978928259
 H       -11.9893798027       -0.5331636936        6.5514846221
 H       -10.9559715267       -1.8600701622        6.0535603995
 H        -9.0085307921        1.1895470256        5.8574462504
 H        -8.6947649851       -0.4054893596        6.1764498295
 H       -10.0308174196        0.4203349543        7.0247037421
 H        -7.8992298609       -0.7984890400       -0.5330623075
 H        -8.0145358697        0.2508528310       -1.9540624530
 H        -9.4500195997        0.1603396044       -0.8599414257
 H        -5.8381432485        0.4589198465        0.2590147202
 H        -6.0331386552        2.1670360307        0.6105745535
 H        -5.9729290596        1.6161877538       -1.0429086915
 H        -7.5902590905        8.0728374637       -4.5478101065
 H        -8.2884701286        8.3184678352       -2.7977258480
 H        -9.1748911044        8.7086497460       -4.2753941698
 H       -10.6966873678        6.7522231308       -2.3629300100
 H       -11.1125872425        5.7003849263       -3.6671028771
 H       -11.2208220087        7.3373727040       -3.9082102184
 H        -4.2691438698        3.2179036394       -8.3501973105
 H        -4.8377924664        1.5837585163       -8.9597047672
 H        -4.6475723540        1.9013211124       -7.2567841382
 H        -6.5269709861        4.0634311269       -9.9903124055
 H        -6.1026704837        5.0658908659       -8.6101923885
 H        -7.7301677681        4.3416313373       -8.8505270547
 Na      -10.3035201638        3.3131916870        2.1835879020
