117

 C        -8.2338464786        1.7617205541       -9.6209043162
 C        -7.4831078750        1.6479930953       -8.3113191053
 O        -7.7124981729        0.6984617532       -7.5899049568
 C        -6.4905831826        2.8561077047       -7.9643331427
 C        -6.5573954375        3.2812221988       -6.4221817269
 O        -5.6220887868        3.2273488933       -5.6826517205
 C        -7.9438042809        3.7901902398       -6.0040469721
 C        -7.7687334315        5.3098886488       -5.7870374297
 C        -9.0676186702        5.8595984100       -5.2970773988
 O       -10.0250391033        5.9810831729       -6.0294031246
 C        -9.1833732378        6.3602115971       -3.8059254571
 C        -8.3227385908        5.4120326527       -2.8840004919
 O        -7.1467683767        5.6651776277       -2.7922369965
 C        -8.9123238808        4.2354264463       -2.1219021293
 C        -7.8147017464        3.5330463781       -1.2648402904
 C        -8.4766739528        2.4432159648       -0.4545571884
 O        -9.6831803149        2.5983386381       -0.1867572804
 C        -7.7332626829        1.1979562410        0.0564579408
 C        -8.1600011411        0.9018792212        1.5360633083
 O        -8.5540468077        1.7741886983        2.2929550261
 C        -8.1777981810       -0.5236276791        2.0256265085
 C        -8.5696609252       -0.5784023999        3.5641070018
 C       -10.0482707029       -0.4179809625        3.6959569634
 O       -10.8605686589       -0.7032778504        2.8758936078
 C       -10.5753260186        0.0952816065        5.0924265463
 C       -11.1378036720        1.4826894175        4.5642194082
 O       -10.4537896150        2.4961714470        4.5718696805
 C       -12.5478080184        1.5349133196        3.8782719909
 C       -13.0368857711        2.9924163634        3.9699241426
 C       -13.3695354288        3.7171976040        2.7021404683
 O       -12.6180101179        3.7043413321        1.7576757883
 C       -14.6530199686        4.7330069598        2.6749653580
 C       -14.1149918165        6.1908213109        2.8988561291
 O       -14.0428018399        6.6765736579        3.9975888166
 C       -13.4761622238        6.9463692813        1.7222132750
 C       -12.2011507585        7.6475681225        2.0908515842
 C       -11.0529793342        6.6730042878        2.1864810023
 O       -11.0089154141        5.7034994552        1.4953581896
 C        -9.8855028606        6.8682444470        3.2162864795
 C        -8.5556703811        6.1925652805        2.7302071765
 O        -8.5800381877        5.0350439782        2.3663590395
 C        -7.3336807232        7.0662730488        2.6554621875
 C        -9.8097386617        8.3617249747        3.7356375511
 C       -10.3578132879        6.0131911893        4.4666162555
 C       -15.3170295585        4.4375497311        1.3163641462
 C       -15.7238554398        4.3692602102        3.8118439708
 C       -11.6982310245       -0.8516246592        5.5726066357
 C        -9.4983052445        0.3801483068        6.0914459505
 C        -8.2486243524        0.0137852778       -0.7860728705
 C        -6.2410184381        1.3339378010       -0.1492180111
 C        -8.5759257421        7.7956675403       -3.5822826077
 C       -10.6627875852        6.4601640935       -3.5169902547
 C        -4.9897927378        2.3509175970       -8.1366597085
 C        -6.6204715984        4.1354716204       -8.8895393597
 H        -7.4893528937        1.7973721463      -10.4963641012
 H        -8.8040431080        2.7386136799       -9.7854169055
 H        -8.8965297332        0.8793078782       -9.6987754999
 H        -8.3278062914        3.3264456127       -5.0775742686
 H        -8.6900949864        3.6290413729       -6.7785403461
 H        -7.4640231002        5.8345620780       -6.6485935532
 H        -7.0364229548        5.6208173068       -5.0642477479
 H        -9.4021600046        3.5878749012       -2.8906739217
 H        -9.7755431027        4.5720306155       -1.4468319739
 H        -7.5088333545        4.2508960646       -0.4726360993
 H        -6.9645954572        3.3311780975       -1.9527559885
 H        -7.1896015682       -1.0591839012        1.8215803058
 H        -8.9654800668       -1.0809479857        1.5119658292
 H        -7.9516637318        0.0891079613        4.1729945838
 H        -8.2208335146       -1.5207736722        3.8122904922
 H       -13.2818007781        0.9494706015        4.4029288157
 H       -12.5485571174        1.1221124032        2.8278790832
 H       -12.2260488917        3.5111751387        4.4023670447
 H       -13.8233535733        3.1609743741        4.6840344046
 H       -14.1004315533        7.7761684730        1.3982502611
 H       -13.2311653620        6.1864430802        0.9494217041
 H       -12.4482639363        8.0745353938        3.0494601767
 H       -11.9640173838        8.4894427101        1.4080730567
 H        -7.6414402609        8.0266742312        2.2606108848
 H        -6.5046345893        6.5417441755        2.2153415752
 H        -6.9331607180        7.3400255604        3.6615392881
 H       -10.6008593986        8.4493927672        4.5296336665
 H        -9.9752767295        9.0549718418        2.8775105089
 H        -8.8311502236        8.5794704189        4.1586449353
 H        -9.7685344865        6.1508797465        5.3824589935
 H       -10.4271856993        4.9457758444        4.2119790724
 H       -11.3917838897        6.3644693483        4.6686194901
 H       -16.0810187211        5.2186927222        1.0525706829
 H       -15.7317350256        3.4306375138        1.1818600198
 H       -14.5454237758        4.5928241805        0.5183594605
 H       -16.6734069438        4.7670970546        3.5513479456
 H       -15.4604347877        4.6704130702        4.8097921325
 H       -15.9743570185        3.2611998676        3.9601434098
 H       -12.2041727741       -1.0646064693        4.6484468783
 H       -12.3546450326       -0.2971130723        6.2065090061
 H       -11.2842848990       -1.7671321168        6.0605510404
 H        -8.7120633171        1.0041040473        5.6508347172
 H        -8.8984004087       -0.5329113407        6.3209304364
 H        -9.8711597996        0.8093664491        6.9582101458
 H        -7.6292582030       -0.8955483417       -0.6428785808
 H        -8.1020065330        0.2963180936       -1.8103624644
 H        -9.3173208939       -0.1431980186       -0.6797402267
 H        -5.8186290623        0.3993491618        0.2860315140
 H        -5.7946617312        2.2843602362        0.2302957545
 H        -6.1361279193        1.2880163812       -1.2207819995
 H        -7.5436569878        7.8078973038       -3.6158950043
 H        -8.9688664570        8.0778863021       -2.5969219765
 H        -8.9006244135        8.5931427317       -4.2203227457
 H       -10.7962261687        7.0664724095       -2.5971576426
 H       -11.2148369934        5.4769512947       -3.4976910783
 H       -11.2093514267        7.0028018129       -4.3053331269
 H        -4.3244632013        3.1589354548       -7.7867016561
 H        -4.8652116749        2.0475792108       -9.1470595342
 H        -4.8627186285        1.4390257990       -7.5713899867
 H        -6.5596162384        3.8329765727       -9.9396288713
 H        -5.7594396609        4.8073552603       -8.7029240853
 H        -7.5427150083        4.7289509090       -8.8419232522
 Na      -10.0928969965        3.4033903589        2.1011907548
