117

 C        -8.2254425926        1.8470389076       -9.6917057075
 C        -7.4522536863        1.7147381471       -8.3849436767
 O        -7.5738350250        0.7863320724       -7.6170056074
 C        -6.4126338362        2.8562548981       -8.0096202352
 C        -6.6926713239        3.2412901861       -6.5312458972
 O        -5.7461152157        3.1722480664       -5.7249660560
 C        -7.9473693237        3.7916339191       -5.9923741337
 C        -7.7265592610        5.3002630128       -5.8034651398
 C        -9.0629606073        5.9883266163       -5.3200407462
 O       -10.0093990303        5.9355115290       -6.0512058383
 C        -9.2033664292        6.4599745703       -3.7656609908
 C        -8.3404860502        5.5086811276       -2.8952866487
 O        -7.1953897979        5.7641315680       -2.6388927721
 C        -9.0075043123        4.3716787319       -2.0959488823
 C        -7.9616350703        3.5459229665       -1.3581617365
 C        -8.5701100018        2.5215280779       -0.4424510999
 O        -9.7615203980        2.4434134290       -0.1969031874
 C        -7.7629460744        1.1949674168        0.0294589543
 C        -8.0935916453        0.9582160270        1.6066223568
 O        -8.4256918772        1.8330339874        2.3643665310
 C        -8.0993884940       -0.5523035466        2.0277289314
 C        -8.5277262875       -0.5890967221        3.5860524985
 C       -10.0257928199       -0.5624570916        3.6207521420
 O       -10.7735005769       -0.8696395494        2.6825240785
 C       -10.6090599202        0.0946818675        5.0102989594
 C       -11.1871287299        1.4188770471        4.5847944482
 O       -10.4304073804        2.3867288356        4.5444961536
 C       -12.5495296504        1.5668793549        4.0390824780
 C       -13.0052831825        3.0584470221        4.0647884665
 C       -13.4005887054        3.7102115632        2.7217436897
 O       -12.6589946430        3.6503582430        1.7575463672
 C       -14.6160824470        4.6291475100        2.5910169057
 C       -14.1115364379        6.1157488388        2.9156591716
 O       -14.2716785337        6.6143376280        4.0062776424
 C       -13.6235809101        6.9657755725        1.7267887438
 C       -12.1984395027        7.6623380273        2.0700194091
 C       -11.0877436125        6.6131000842        2.1907279535
 O       -10.9615028413        5.6508601635        1.4436040584
 C        -9.9359635153        6.8480917783        3.3142412238
 C        -8.5608231037        6.2646514230        2.7446702807
 O        -8.4345157807        5.0751766519        2.4512500682
 C        -7.2832470039        7.0507838422        2.6410002460
 C        -9.8049469090        8.3257995825        3.6937463973
 C       -10.2671778800        6.0892500781        4.6785038874
 C       -15.2486514169        4.5346937529        1.1711162824
 C       -15.6909644814        4.4132926966        3.6705196732
 C       -11.5745761679       -0.9803527977        5.6702002880
 C        -9.4868302882        0.3633687260        6.0991330409
 C        -8.4018189169        0.0263288481       -0.8222137816
 C        -6.2049212392        1.3888769575       -0.0985500434
 C        -8.4807566114        7.8323621898       -3.6110250723
 C       -10.7113472265        6.5322754834       -3.5032141916
 C        -4.8965119673        2.4109624785       -8.1053756726
 C        -6.6400382934        4.0744782541       -8.8480232930
 H        -7.5898951892        1.8863501850      -10.6278461365
 H        -8.8107063455        2.7528387991       -9.7693838135
 H        -8.9170915251        0.9301130746       -9.7047426466
 H        -8.2510051320        3.3160183763       -5.0463226727
 H        -8.7751648059        3.6336239740       -6.6775107318
 H        -7.4863056166        5.7740721611       -6.7829088486
 H        -6.9391177041        5.5801228310       -5.1465682063
 H        -9.5400195052        3.8090819134       -2.8653893639
 H        -9.7978495000        4.7278818826       -1.3900412710
 H        -7.2403993742        4.2710921818       -0.8771092930
 H        -7.4076711018        3.0462447550       -2.0843194996
 H        -7.0768315497       -0.8954364216        1.9342960596
 H        -8.7414020136       -1.1988413684        1.3872806544
 H        -8.1159179240        0.2427557273        4.0628766290
 H        -7.9947702678       -1.4504034348        4.0294071432
 H       -13.2614099859        0.9053311280        4.4783851098
 H       -12.4397346647        1.3158353220        3.0427184890
 H       -12.1177886755        3.5333328851        4.3592773067
 H       -13.7281745678        3.3326884523        4.7979465458
 H       -14.3542981620        7.7358234266        1.5802826376
 H       -13.4107505346        6.2734230395        0.8314652398
 H       -12.3090834444        8.1931176509        2.9977687511
 H       -11.8829682770        8.3358049338        1.3524938477
 H        -7.5199523848        8.0479505491        2.3279265964
 H        -6.4726846545        6.4564119866        2.1874022684
 H        -6.8875698240        7.2585303995        3.6517721533
 H       -10.6334268647        8.5610543328        4.3473803295
 H        -9.7528972246        8.9390258873        2.7701471808
 H        -8.8717078808        8.4652062581        4.2328453791
 H        -9.4847900100        6.1107004684        5.4438473441
 H       -10.4234669479        5.0533837289        4.3915073461
 H       -11.1937058164        6.4912220843        5.1008233832
 H       -15.7570966151        5.4750022720        0.8773638889
 H       -15.9602306717        3.7081585249        1.0360988776
 H       -14.4785045807        4.4104244249        0.4218353781
 H       -16.5316263900        4.9267079593        3.2678900321
 H       -15.4162703831        4.7704051857        4.6924352490
 H       -16.0610865654        3.4164767443        3.9226313390
 H       -12.1682197470       -1.5010604828        4.9411956101
 H       -12.1679497507       -0.4871686463        6.4376410151
 H       -10.8774829159       -1.6805953939        6.1526414056
 H        -8.7889353879        1.1408825994        5.9415590383
 H        -8.8580887061       -0.4978422666        6.2437171066
 H       -10.0247297665        0.5586277103        7.0084415313
 H        -8.0570110165       -1.0296030109       -0.5728373151
 H        -8.0667815190        0.1780170328       -1.8980868134
 H        -9.4868024542        0.1714426889       -0.8543263642
 H        -5.7158714707        0.5339479991        0.3054439904
 H        -5.9880019154        2.2804736262        0.4650969380
 H        -5.9173506434        1.5435758683       -1.1543953890
 H        -7.4688342706        7.8713794932       -4.0927944652
 H        -8.5322794983        8.2143788624       -2.5888253795
 H        -9.0036129691        8.5981082146       -4.2098681209
 H       -10.8503403276        6.9570015467       -2.5434832807
 H       -11.2642378354        5.6585784969       -3.6604667199
 H       -11.1645856843        7.2535273737       -4.2202844172
 H        -4.2855951213        3.2786389021       -8.0769494824
 H        -4.7528896027        1.7341889203       -8.9501421450
 H        -4.7039887441        1.7917682747       -7.2342828467
 H        -6.7526119212        3.7824140182       -9.9264970900
 H        -5.8822508420        4.8522409475       -8.7878658823
 H        -7.6428325985        4.5005748987       -8.6686001897
 Na      -10.1702319050        3.3035140503        2.1636271646
