117

 C        -8.1526824914        1.0811010343       -9.3433706766
 C        -7.7716886503        1.5582521713       -7.9642942774
 O        -8.4035776855        1.2627491641       -6.9555292883
 C        -6.4934203442        2.4631746953       -7.9156648153
 C        -6.2717265826        3.2118953028       -6.5768436497
 O        -5.1985037549        3.3811181994       -5.9915385040
 C        -7.5873135253        3.8934508795       -5.9539453787
 C        -7.6386481658        5.4609521630       -5.8586912664
 C        -9.0266737114        5.7032378067       -5.3356997541
 O        -9.9785837070        5.6524302586       -6.0462248598
 C        -9.1467131063        6.1114941176       -3.8281736683
 C        -8.2123214736        5.0908215371       -2.9939833677
 O        -7.0034575291        5.2995470035       -2.8523474174
 C        -8.8229742121        3.7829238076       -2.4200049038
 C        -7.8078740930        2.8997567813       -1.6282849448
 C        -8.4515666575        2.3313834336       -0.3338870293
 O        -9.3879754804        2.9557836004        0.1095075629
 C        -7.7982644293        0.9894542532        0.2134136577
 C        -8.5635360062        0.5009028547        1.6029405010
 O        -9.3935562732        1.2090300007        2.1248711106
 C        -8.2408772001       -0.8805717918        2.0728160976
 C        -8.7088349332       -0.9231780293        3.6012171021
 C       -10.1387354496       -0.5138126394        3.9064612170
 O       -11.0543784088       -1.1199233623        3.3603809389
 C       -10.5563040493        0.5351457398        4.9409594042
 C       -11.2437083675        1.6872153455        4.1899725829
 O       -10.6788254980        2.7839365241        4.1923674917
 C       -12.5410363986        1.5646761525        3.4927786149
 C       -13.3529085288        2.8444948713        3.7792661224
 C       -13.4635756708        3.8343074601        2.6312393579
 O       -12.7095658614        3.8191005341        1.6733601098
 C       -14.6276314466        5.0240482896        2.8855299441
 C       -13.8116742731        6.3697265218        3.0031675695
 O       -13.5222725791        6.8784751728        4.0779980686
 C       -13.4442422664        7.0066181243        1.6499326606
 C       -12.1020480613        7.8379790111        1.8486283024
 C       -10.9238697755        6.8450127994        1.9620438429
 O       -10.9562643587        5.8454297941        1.2333699951
 C        -9.9001803283        7.0462085776        3.1200734755
 C        -8.5326312591        6.4597526086        2.7497579070
 O        -8.4432828901        5.2439625915        2.5749496863
 C        -7.3505579090        7.3894927712        2.5279896559
 C        -9.6656708929        8.5966554107        3.4697609153
 C       -10.4588746030        6.2995755766        4.3018612715
 C       -15.7050180438        5.0254134082        1.8164901450
 C       -15.3887871694        4.7442100375        4.2202924216
 C       -11.6512531079       -0.2076052815        5.9210575131
 C        -9.2865459983        1.0827459151        5.6690728086
 C        -7.8490734016       -0.1597020226       -0.8744613542
 C        -6.2711274001        1.3419793621        0.5609728457
 C        -8.5656289576        7.5220332564       -3.7842388315
 C       -10.5734562086        6.1511692222       -3.3506701829
 C        -5.2301372317        1.5498675319       -8.2004364275
 C        -6.5998918099        3.6777290950       -8.9563662609
 H        -7.2752227143        0.6822871084       -9.7088237763
 H        -8.4233777219        1.8975911007       -9.9746650291
 H        -8.9124233995        0.3310292154       -9.4177404267
 H        -7.4410526185        3.5153618247       -4.9217027677
 H        -8.5515762014        3.4712626617       -6.2613356265
 H        -7.3543609926        6.0017571905       -6.7582210577
 H        -6.8294009059        5.8151507517       -5.1477818640
 H        -9.2946556814        3.1659697103       -3.1517965741
 H        -9.6011204484        4.1215292670       -1.7514518044
 H        -7.0762747368        3.5368965902       -1.2702700871
 H        -7.3989933109        2.1921807871       -2.3767602169
 H        -7.1514792104       -1.0352572881        1.9766243901
 H        -8.8099483637       -1.5943084758        1.5263652704
 H        -7.9682246523       -0.2962086261        4.1802673268
 H        -8.5045423908       -1.9248452189        3.8947895949
 H       -13.0961091830        0.6723076223        3.5252331373
 H       -12.2742222311        1.5522759399        2.4868224873
 H       -12.8366473065        3.3937449313        4.5860018978
 H       -14.3804476595        2.6982005914        4.1747954361
 H       -14.2982688735        7.7001401853        1.3208148615
 H       -13.4177200213        6.2386455241        0.8884211421
 H       -12.2976132576        8.5592505955        2.5681185318
 H       -11.9018390779        8.3979805398        0.9477052909
 H        -7.4764270539        8.2659567492        1.8874427457
 H        -6.5689986798        6.9556348428        1.9093984626
 H        -7.0116616128        7.6008194682        3.5381847275
 H       -10.5055418764        9.2441271622        3.6849687085
 H        -9.2357845596        9.0554024761        2.6221297243
 H        -8.9971280699        8.7094764441        4.3131488333
 H        -9.7145644336        6.2862900494        5.0882553370
 H       -10.6979519847        5.2521047667        4.0711102326
 H       -11.3734983545        6.7344839898        4.6986064763
 H       -16.4771562616        5.7136860772        2.0720091649
 H       -16.1505841250        4.0511574136        1.7454366336
 H       -15.2197026002        5.2381054735        0.8730394770
 H       -15.9451745778        5.6699547806        4.5246774787
 H       -14.7434781390        4.6769350574        5.0686471512
 H       -16.0878635001        3.9050531929        4.1372849602
 H       -12.5039809518       -0.4790173902        5.2730234575
 H       -11.7622521878        0.3594558643        6.8452327370
 H       -11.0890690919       -1.1140605158        6.1625408740
 H        -8.6402531911        1.5778380986        4.9431889730
 H        -8.8531415121        0.2503185672        6.1998454647
 H        -9.4873803621        1.8532446467        6.4196945765
 H        -7.0159747083       -0.8338276269       -0.8259412673
 H        -7.7974111977        0.2724179793       -1.8684434521
 H        -8.7777387267       -0.7566257169       -0.7544515113
 H        -5.9290600726        0.5479608851        1.2564360940
 H        -6.2723014164        2.2736318843        1.1186340392
 H        -5.6034196595        1.3549674960       -0.2782173269
 H        -7.4518300838        7.5954402797       -3.7077103183
 H        -8.9303171730        8.0410945101       -2.8611761904
 H        -8.9840237287        8.0068103942       -4.7143027153
 H       -10.5281836406        6.3630167087       -2.2854113595
 H       -11.1040836845        5.2122652659       -3.3426335620
 H       -11.1442630083        6.8908629174       -3.8010912578
 H        -4.5025141283        2.2032563355       -8.7217919791
 H        -5.4692988229        0.7848095601       -8.9080734846
 H        -4.8599117059        1.2170834094       -7.2407206609
 H        -6.3532156990        3.3668928418       -9.9469992474
 H        -5.8907880742        4.4749061975       -8.6711883554
 H        -7.5937060349        4.1273041067       -8.9669082978
 Na      -10.3246659179        3.8627951726        2.0105317467
