117

 C        -8.1069077468        0.3502975684       -9.1168131568
 C        -7.5735140391        1.1115232435       -7.8905834836
 O        -8.0305123248        0.8416928229       -6.7738884880
 C        -6.4687702509        2.1826040721       -8.1072237262
 C        -6.2662960767        3.1200357364       -6.8874888647
 O        -5.1380996504        3.3485723197       -6.4721171346
 C        -7.5299296739        3.7493902786       -6.3618053481
 C        -7.3839300793        5.1101172870       -5.7470470375
 C        -8.8207706827        5.7170185386       -5.2289964993
 O        -9.8021859984        5.7824385770       -5.9077311938
 C        -8.8443731293        6.1394270638       -3.7166851342
 C        -8.2942915527        5.0292533548       -2.8329166378
 O        -7.2206389881        5.0869863305       -2.2331325055
 C        -9.1882798043        3.7940600171       -2.7506268522
 C        -8.4862048005        2.5603008319       -2.0377741584
 C        -8.8902118083        2.3629227462       -0.5793699741
 O        -9.7567853841        3.0121860652       -0.0453837696
 C        -8.1339286908        1.1837409259        0.1824116371
 C        -8.9089850713        0.6479556804        1.3170945118
 O        -9.5191720782        1.3817076950        2.0620646077
 C        -8.7620436971       -0.7903687794        1.9289296805
 C        -8.7949576907       -0.8023124888        3.4619063860
 C       -10.2827583239       -0.4329263925        4.0010674807
 O       -11.1774955299       -1.0855688652        3.5798259171
 C       -10.5472840305        0.7814010696        4.9880127513
 C       -11.3017029347        1.9358848741        4.2151402753
 O       -10.9187995360        3.0859644959        4.3903193366
 C       -12.4744361012        1.5226386784        3.3009481678
 C       -13.6367836036        2.5474337340        3.6123134674
 C       -13.4477504059        3.9361253208        2.8870708699
 O       -12.4922925896        4.2369715561        2.1849645581
 C       -14.6607874200        4.9785839372        3.0632027494
 C       -13.8900456758        6.3582702496        3.0657373672
 O       -13.7457347254        6.9384102507        4.1188181813
 C       -13.4190245970        6.9528830558        1.6874098212
 C       -12.1301582989        7.7515559350        1.8557573569
 C       -10.8165999527        6.8940864680        1.9266129300
 O       -10.6916165725        5.9579908706        1.1766321448
 C        -9.6874089472        7.2961254258        3.0356464232
 C        -8.3674430186        6.4404819306        2.7430852636
 O        -8.3286242954        5.2233689597        2.8389368764
 C        -7.0770959829        7.1615770142        2.3380887022
 C        -9.4024001763        8.7868279362        3.0089282996
 C       -10.1937467856        6.8990040989        4.4597697568
 C       -15.5305274588        4.8232378917        1.7672388355
 C       -15.2975425867        4.7138751160        4.4026135480
 C       -11.5000671980        0.2041812746        6.1815189526
 C        -9.3668971415        1.3868440870        5.6740354952
 C        -7.6894004853       -0.0014133617       -0.7365757898
 C        -6.7998263129        1.7161290554        0.8157342460
 C        -8.0674652079        7.4633316148       -3.6440942499
 C       -10.3539177113        6.4603320757       -3.3015492718
 C        -5.2010777000        1.3278172014       -8.3370460618
 C        -6.7273544932        3.0167789365       -9.3471600346
 H        -7.3667377126        0.1051505799       -9.8736298798
 H        -8.9178353348        1.0231469947       -9.5073345850
 H        -8.5854751109       -0.5873405260       -8.8713787219
 H        -8.2280762148        3.0455731782       -5.8693050389
 H        -8.1434786288        3.9438309833       -7.2421327712
 H        -7.0450895750        5.7397950428       -6.5683271543
 H        -6.7760037937        5.1287387462       -4.8809897755
 H        -9.4156096396        3.4604275342       -3.7783972347
 H       -10.1576805263        3.9318705500       -2.2744224478
 H        -7.3919116076        2.6162341761       -2.0477141222
 H        -8.6746254443        1.7214629815       -2.5991340833
 H        -7.8280840453       -1.2199447252        1.5556765340
 H        -9.5688734686       -1.4884497743        1.6101868166
 H        -7.9691169203       -0.2705373456        3.8964974361
 H        -8.7180190094       -1.8266622256        3.7137192433
 H       -12.8645642729        0.5389321393        3.4915770083
 H       -12.1751688214        1.6574146832        2.2173023144
 H       -13.6992831181        2.6558542959        4.6416731442
 H       -14.5483492961        2.2405822375        3.1988779007
 H       -14.1920489839        7.4541652849        1.1605433072
 H       -13.2023835440        6.0716117548        0.9766078835
 H       -12.1926461104        8.3867704682        2.7306411214
 H       -11.9951172125        8.3681984929        1.0032610392
 H        -7.1559034185        7.7847600669        1.4227108877
 H        -6.2801195460        6.4798375058        2.0697918660
 H        -6.7939153322        7.9062072843        3.1293920220
 H       -10.2531551573        9.3980989153        2.7927749653
 H        -8.6366673290        9.0263228887        2.2933145326
 H        -8.9987542437        9.1560721424        3.8973884135
 H        -9.4919858330        6.7545210336        5.2615471952
 H       -10.7575154110        5.9756875631        4.5067024578
 H       -10.8686150885        7.6915441360        4.7609661762
 H       -16.0281212276        5.7796874785        1.6167096657
 H       -16.2097020377        4.0172539430        1.8713823430
 H       -14.8671056599        4.6300477934        0.9490731915
 H       -15.9492992637        5.5013864276        4.6323034323
 H       -14.5507058671        4.4190977019        5.1260130734
 H       -15.9412595905        3.7872669168        4.3513603517
 H       -12.3254034020       -0.3211975333        5.7509938272
 H       -11.6684242526        1.0632471840        6.8042745290
 H       -10.8375057119       -0.5569710775        6.6090421652
 H        -8.6723571857        1.9330730176        5.0318886561
 H        -8.7788112015        0.5841174530        6.1710362240
 H        -9.7976967198        2.0199488827        6.3582816468
 H        -7.0186144426       -0.7097030269       -0.1674141644
 H        -7.2021707228        0.2338173494       -1.6868520745
 H        -8.6236491457       -0.5279398915       -1.0333501312
 H        -6.3410785114        1.0026590690        1.4806175528
 H        -7.0357338675        2.6376026290        1.3618452674
 H        -6.1264762221        1.9019054900        0.0119722037
 H        -7.2384368856        7.4349627376       -4.3483916363
 H        -7.8465076722        7.4949754264       -2.5208343334
 H        -8.6632276686        8.3840317021       -3.9349312470
 H       -10.3906490470        6.7723709058       -2.2952102660
 H       -11.0699940051        5.6685146644       -3.4136729238
 H       -10.7352100096        7.2470481217       -3.8885547066
 H        -4.3741663606        1.9808869333       -8.0503884010
 H        -5.1756548378        0.9618153140       -9.3736370396
 H        -5.2169203493        0.4631991393       -7.6588194109
 H        -6.7633541462        2.4563188606      -10.2932162511
 H        -5.9456122817        3.7431891627       -9.3994363954
 H        -7.6842668371        3.5065409745       -9.3028323349
 Na      -10.0498681432        3.8376121803        2.0511945920
