117

 C        -8.1552264502        0.1724351197       -9.0205374747
 C        -7.4719061046        0.8436540611       -7.8358786011
 O        -7.9239822367        0.7328299295       -6.7371353351
 C        -6.3968827692        2.0289432361       -8.1926622491
 C        -6.3450640998        3.1302892274       -7.0525589510
 O        -5.3170187110        3.4144743610       -6.4965812367
 C        -7.6483234293        3.8645143643       -6.6834108680
 C        -7.3553205917        4.9560134431       -5.5837857725
 C        -8.6986460266        5.6384439436       -5.2108117046
 O        -9.6585642238        5.7670187575       -5.9692768565
 C        -8.7839495062        6.2547189324       -3.7055323334
 C        -8.4335007387        4.9773730492       -2.7346168338
 O        -7.4295225303        5.0156620567       -2.0960689709
 C        -9.2517895192        3.6596568473       -2.8522256370
 C        -8.5990242976        2.4643917199       -2.2048977109
 C        -8.9255666754        2.2604425694       -0.7534157322
 O        -9.7536192777        2.9586025616       -0.1958893914
 C        -8.2286324003        1.1990773823        0.1248760240
 C        -8.9958396656        0.7647625272        1.4040729331
 O        -9.6486533415        1.5123686645        2.1227286460
 C        -8.8780437718       -0.6200426080        2.0398068950
 C        -8.9359999417       -0.7010642806        3.6035392629
 C       -10.3303484036       -0.3457697739        4.0134872388
 O       -11.3233953829       -0.9107304663        3.5283561904
 C       -10.5396132303        0.7960109665        5.0592482810
 C       -11.2579025979        1.9860022259        4.2221161359
 O       -10.8014240793        3.1104039781        4.3486753980
 C       -12.4584709997        1.5972678676        3.3867121101
 C       -13.6657784267        2.4838556419        3.6209318736
 C       -13.4583041724        3.8705024555        2.9678834243
 O       -12.5547936901        4.1928659955        2.2331302161
 C       -14.6193810845        4.9343048584        3.1135201963
 C       -13.8703882213        6.3479236592        3.1701693466
 O       -13.7098526333        6.8585006170        4.2530238784
 C       -13.3362995062        6.9838158712        1.8797910369
 C       -12.0177391369        7.7251203352        1.9374333326
 C       -10.7404492821        6.8655058019        1.7683942222
 O       -10.5063090000        6.0401513772        0.9403060970
 C        -9.5815988400        7.2641209281        2.8948791794
 C        -8.2514224117        6.4436781940        2.7600294168
 O        -8.2730892429        5.2602820021        3.0264505222
 C        -6.9697645087        7.1572162672        2.4139401686
 C        -9.4068296422        8.8047136254        2.7238422321
 C       -10.2001175060        6.8800373227        4.2188555365
 C       -15.5246481143        4.6925688207        1.8454195818
 C       -15.6269191832        4.8445686758        4.3395819410
 C       -11.5627945802        0.2135858811        6.1053697288
 C        -9.2274168764        1.3529633407        5.7134718274
 C        -7.6949415518        0.0373018558       -0.6259080683
 C        -7.0291014595        2.1242566853        0.6059754700
 C        -7.6896222697        7.3070274040       -3.5040197813
 C       -10.1860886837        6.6966941613       -3.3689343251
 C        -4.9729225668        1.3659296839       -8.3843289166
 C        -6.8451045322        2.7161188331       -9.5075079131
 H        -7.4680496766       -0.1324489528       -9.8845110361
 H        -9.0021819641        0.8019045777       -9.3456042179
 H        -8.5670865757       -0.7786230484       -8.6165936009
 H        -8.3494662688        3.1110991360       -6.3557694621
 H        -8.2146227680        4.3303733644       -7.5166241644
 H        -6.7537440587        5.7188417782       -6.0857005125
 H        -6.9181915412        4.5620734705       -4.6378831561
 H        -9.4909871253        3.3501152489       -3.8824182434
 H       -10.2584897248        3.7687230747       -2.3831804458
 H        -7.4912814441        2.4795256735       -2.3425990443
 H        -8.8782377052        1.5059930506       -2.8425301826
 H        -8.0634809714       -1.1828077810        1.5745601879
 H        -9.7610893697       -1.1559040356        1.6771741266
 H        -8.2701099710        0.0172643004        4.1140188169
 H        -8.6372060704       -1.7648718435        3.9048541728
 H       -12.8950252859        0.5838577324        3.6495637860
 H       -12.1528354387        1.6895455033        2.3447503769
 H       -13.7447502151        2.6203827018        4.7490123006
 H       -14.5872142138        2.0167738038        3.1693580673
 H       -14.0187612107        7.8576660023        1.6603927776
 H       -13.5580769558        6.3761685284        1.0864804610
 H       -12.0716391284        8.1314794837        2.9838062376
 H       -12.0207461465        8.6027326925        1.1903338651
 H        -7.0907228899        7.7799468015        1.5168364086
 H        -6.1596960299        6.4062174810        2.2562986618
 H        -6.7078529198        7.8899629595        3.1466591470
 H       -10.3317161399        9.2701597947        3.0694027024
 H        -9.1982570107        9.1922282293        1.7200894522
 H        -8.5725715366        9.2731257396        3.3164159100
 H        -9.6876369166        7.3534699757        5.0787591559
 H        -9.9701983240        5.8309410665        4.4182126004
 H       -11.2497155530        6.9888462994        4.4429996033
 H       -16.4917266591        5.1225687234        2.0393039737
 H       -15.5138918135        3.5907880798        1.7833660509
 H       -15.1631201202        5.1230870944        0.9030196333
 H       -16.0917913272        5.8479829769        4.3773242420
 H       -15.0974431290        4.5003834785        5.2317957392
 H       -16.4121209063        4.1724279903        4.2049081306
 H       -12.5682880370        0.1615389988        5.6735549547
 H       -11.4319068641        0.9797684862        6.8489739162
 H       -11.1492605787       -0.7068541557        6.4128359838
 H        -8.5448549156        1.6449637618        4.9510459619
 H        -8.7424786141        0.5475555454        6.1873404534
 H        -9.4748199605        2.1912866085        6.4498579546
 H        -6.8363248706       -0.4106039373       -0.1280409806
 H        -7.4652242723        0.2578213546       -1.6926191863
 H        -8.4830566795       -0.7085308217       -0.6973071291
 H        -6.5002382591        1.6130910528        1.4121006058
 H        -7.4354012742        3.0192560312        1.0210769849
 H        -6.3588515645        2.4125548473       -0.2467823666
 H        -6.7537239961        6.7620761729       -3.7683697960
 H        -7.7364707139        7.6872623845       -2.5556298703
 H        -7.8471386077        8.0802914864       -4.1928282298
 H       -10.2680699375        6.9315087871       -2.2727860172
 H       -10.8890244621        5.8986263463       -3.6326829995
 H       -10.5432906704        7.7108297790       -3.7839177620
 H        -4.3122803260        2.0318132985       -8.9122401032
 H        -5.1646916276        0.3901147799       -8.8271142349
 H        -4.5541731055        1.1113328463       -7.4175784708
 H        -6.7483939057        2.0313080086      -10.3529851877
 H        -6.2669062969        3.6396750073       -9.7329685999
 H        -7.9219209412        2.9954392805       -9.4317791220
 Na      -10.0353385195        3.8881077409        2.3537582954
