117

 C        -7.7724182292       -0.5042831825       -8.4224842431
 C        -7.3878206232        0.6813811179       -7.5809983778
 O        -7.5400090335        0.8499662259       -6.3970785647
 C        -6.4694697740        1.7660094258       -8.3497550730
 C        -6.1438969915        2.9282085278       -7.3844914320
 O        -5.0233439255        3.1330379269       -6.9997329409
 C        -7.4099277271        3.8384963126       -7.0983144066
 C        -7.4162804649        4.2863850041       -5.6024405621
 C        -8.5466452673        5.3303992869       -5.1490053381
 O        -9.5029728085        5.6520100405       -5.8484692994
 C        -8.3896322230        5.8077395453       -3.6489800722
 C        -8.7138636512        4.6010579643       -2.6872215132
 O        -8.0422809471        4.3721458278       -1.6946570316
 C        -9.9290090856        3.6687682645       -2.8468591501
 C        -9.6228385176        2.2531903957       -2.2688684609
 C        -9.4899577691        2.3652207136       -0.7302582650
 O       -10.2078240037        3.1482852738       -0.1896230108
 C        -8.3735210057        1.6832015960        0.1128181605
 C        -8.9115858067        1.1001953676        1.4676631177
 O        -9.4023664721        1.8232173552        2.3416492190
 C        -8.7956217515       -0.4015889514        1.8188961736
 C        -8.7238471761       -0.5018671437        3.3526739245
 C       -10.1280636455       -0.2553817816        3.9627871297
 O       -11.0287473751       -1.0317848487        3.5906280567
 C       -10.5925813862        0.6928163391        5.1330337717
 C       -11.3604507383        1.8720803138        4.4707074549
 O       -10.7349629532        2.9167381258        4.4100279156
 C       -12.7761944549        1.7606218020        3.8770113786
 C       -13.6605696289        2.9579555594        4.1212233260
 C       -13.5114686993        4.0323448179        2.9832506106
 O       -12.7779967549        3.8407707526        2.0369795177
 C       -14.5189680443        5.1832323871        3.0299715507
 C       -13.7280716305        6.5980018481        3.0283496958
 O       -13.3932677052        7.0443111378        4.0916530839
 C       -13.2915415062        7.2834908560        1.7517059740
 C       -11.9834013284        8.0906942598        1.9266669210
 C       -10.7856018074        7.1606003499        1.8427672793
 O       -10.7400941609        6.2514602536        1.0540114197
 C        -9.5623904558        7.3983206710        2.8318120697
 C        -8.3351619201        6.4716870458        2.4747784669
 O        -8.5087932678        5.2918978362        2.2529530756
 C        -6.9261756591        7.0168655840        2.7019939718
 C        -9.0952291868        8.9468183173        2.8023800241
 C        -9.9827328302        7.0265939273        4.1984669577
 C       -15.3929939858        4.9435777905        1.7436196212
 C       -15.3721510768        5.2702072245        4.3027527457
 C       -11.5425783811       -0.0754550306        6.1924573008
 C        -9.3582322970        1.1408382297        5.9102562105
 C        -7.4705510371        0.7031097324       -0.6528449609
 C        -7.4007311750        2.8478131602        0.5110610139
 C        -7.0100681379        6.3216391364       -3.3319811653
 C        -9.4287696335        6.9301496581       -3.2618459646
 C        -5.0641474040        1.2862997017       -8.8916475911
 C        -7.2641595024        2.2668090132       -9.6027803099
 H        -6.9573043287       -0.7641757274       -9.0469948031
 H        -8.5473878839       -0.2531023212       -9.1290160811
 H        -8.0364103901       -1.2734155546       -7.6919696989
 H        -8.3051068191        3.1909223950       -7.2760675132
 H        -7.3553418435        4.7247619187       -7.6954334452
 H        -6.3661076958        4.6232758570       -5.4034191651
 H        -7.5467101643        3.3824985831       -4.9272085063
 H       -10.2849713252        3.5486038032       -3.8583849027
 H       -10.8131993944        3.9731702601       -2.2915788742
 H        -8.7238996346        1.7650759089       -2.6775198079
 H       -10.3904480065        1.5497890598       -2.5163569067
 H        -7.8773527605       -0.7233572841        1.3173984712
 H        -9.5228598971       -1.0610792364        1.3518359349
 H        -8.0149235928        0.2804569238        3.7884538226
 H        -8.3208800457       -1.4377643606        3.6582836635
 H       -13.2926687617        1.0227785302        4.4072725014
 H       -12.7203588962        1.5814875327        2.8171223650
 H       -13.4584299139        3.4092556321        5.1488405468
 H       -14.7999680433        2.7708200709        4.1551799547
 H       -14.0995059048        7.9368524143        1.4689716749
 H       -13.1486452703        6.5438492571        0.8538160003
 H       -11.9315315307        8.5975669662        2.8993624147
 H       -11.8809742873        8.7986424317        1.1032964759
 H        -6.7320824139        7.8651482115        2.0654134563
 H        -6.2570861694        6.1739201876        2.6430907678
 H        -6.6742916302        7.3696697160        3.6839336499
 H        -9.0231610486        9.3936551984        3.8351082984
 H        -9.8614739393        9.5288793805        2.2444372080
 H        -8.0962864886        9.1120997504        2.4044535764
 H        -9.2239374843        6.9775798715        4.9574941193
 H       -10.6695185485        6.1884235893        4.2665038929
 H       -10.6711660858        7.8176318018        4.5587746598
 H       -16.0386548090        5.8380890089        1.5560326829
 H       -16.0895189446        4.1193052423        1.9499063939
 H       -14.7811464376        4.7258818597        0.8306234616
 H       -15.7319803680        6.2834817853        4.4172513942
 H       -14.8032237907        5.1925420365        5.1653176017
 H       -16.2189875997        4.5883398361        4.1536582958
 H       -12.2565488102       -0.5033319055        5.4967492467
 H       -11.9393034837        0.6103586017        6.9278338358
 H       -10.8183968614       -0.8043368670        6.5812865165
 H        -8.6934326936        1.7084815564        5.2327167679
 H        -8.8804668413        0.2638360493        6.3797353114
 H        -9.6086169515        1.8111161548        6.7092602015
 H        -6.7248106213        0.2571498602       -0.0360906728
 H        -6.9489710805        1.2021366348       -1.4355888647
 H        -8.0917346465       -0.1245368626       -1.0107564922
 H        -6.8849698885        2.4659889768        1.4309574079
 H        -8.0655719255        3.6423086566        0.8889518562
 H        -6.7230351124        3.2751563006       -0.2027039890
 H        -6.2864569436        5.6087854806       -3.6254128520
 H        -6.9247193340        6.2122523982       -2.3041413727
 H        -6.9390432323        7.3012456224       -3.6545565090
 H        -9.3284168767        7.1970901309       -2.1422432758
 H       -10.5171858749        6.6412400545       -3.4370605530
 H        -9.2419298584        7.9041912599       -3.7277736577
 H        -4.4446271510        2.2110843954       -9.0016403370
 H        -5.1152211013        0.8949524321       -9.8887784359
 H        -4.5606904164        0.5906700653       -8.2345045119
 H        -7.2111999538        1.4621756657      -10.3496632728
 H        -6.8843915396        3.1998640741      -10.0461285011
 H        -8.2854847293        2.5126650170       -9.2901384573
 Na      -10.4966942460        3.8859008691        2.2489125402
