117

 C        -6.9957119130       -1.1901644085       -7.6794781105
 C        -7.0649607850        0.3466727376       -7.3552228123
 O        -7.4923132558        0.7540644522       -6.2813707385
 C        -6.6009920877        1.3691211595       -8.4986258282
 C        -6.1601881147        2.6393481955       -7.7511845703
 O        -4.9757648548        2.9592501015       -7.8213202216
 C        -7.2282604593        3.5700292739       -7.3439400391
 C        -6.9778363354        4.1891750800       -5.9332677446
 C        -8.2617719898        4.8920485728       -5.3749440706
 O        -9.3382454506        4.9970825977       -5.8961107978
 C        -8.1782382480        5.4643911890       -3.7818116403
 C        -8.5668480480        4.1828879081       -2.9351506140
 O        -7.7112857443        3.5627194560       -2.3534031887
 C       -10.0348430143        3.5006772491       -2.9217891309
 C       -10.1454955186        2.2781551519       -1.9624457491
 C        -9.5458664314        2.6109712899       -0.4907186117
 O        -9.9706698316        3.5903215688        0.0761332487
 C        -8.3245978783        1.7297943062        0.1331205643
 C        -9.0514730475        1.1045106245        1.3338878675
 O        -9.7824888987        1.8220620214        2.0208970899
 C        -8.7843301016       -0.3324457790        1.8043965379
 C        -8.9425019408       -0.3428895386        3.4037603568
 C       -10.4026188168        0.0597887635        3.7225195125
 O       -11.3109831438       -0.4364317936        3.1245676807
 C       -10.6751802381        0.8901972284        4.9930157198
 C       -11.1944554631        2.2620067806        4.6095732256
 O       -10.5000667019        3.2498881863        4.6693194147
 C       -12.7117145961        2.2693769576        4.2232071128
 C       -13.4144719714        3.6231149729        4.3275504998
 C       -13.6985253038        4.3534085383        3.0278185587
 O       -12.9787739957        4.1569652945        2.0542772928
 C       -14.7467717062        5.4455045673        3.0345556400
 C       -13.6480707479        6.6939603731        3.1209830306
 O       -13.0037133635        6.8075439720        4.1421377162
 C       -13.3134668768        7.5140536236        1.8455702854
 C       -11.9873073727        8.2567467958        2.0232147905
 C       -10.7927226333        7.2763655484        2.1901284251
 O       -11.0067130961        6.1529186672        1.7263867455
 C        -9.5744141379        7.5875165209        3.0488119340
 C        -8.3303378119        6.5963568410        2.6864486193
 O        -8.5661108169        5.4017993023        2.8913301659
 C        -7.0316117517        7.0719916230        2.2550232023
 C        -9.1117840618        9.1009585947        3.0697382258
 C       -10.0471213309        7.2742753275        4.5280873769
 C       -15.5830129285        5.4563850278        1.7813634719
 C       -15.6447390393        5.5065941057        4.2988351533
 C       -11.7163376205       -0.0351516776        5.7609556446
 C        -9.4271334694        1.0437089350        5.9043510823
 C        -7.6129268157        0.7013942710       -0.8231528847
 C        -7.3146668320        2.7656309253        0.6754611531
 C        -6.8848471391        6.0350451443       -3.1735149943
 C        -9.2875063333        6.6045495910       -3.7309026383
 C        -5.3277119529        0.8970251889       -9.2408974152
 C        -7.7433875645        1.6247025833       -9.5128622916
 H        -6.0734265603       -1.2110470488       -8.3439027133
 H        -7.9036269429       -1.4113719159       -8.2715289944
 H        -6.9213164680       -1.9205531271       -6.8578700077
 H        -8.2021611284        3.0078107136       -7.4068414404
 H        -7.2960848355        4.3319852394       -8.0907560962
 H        -6.1447873231        4.8858652010       -5.9297682694
 H        -6.6435554144        3.3579780970       -5.3054881791
 H       -10.3005097345        3.0730987601       -3.8952215214
 H       -10.8866994872        4.2138265804       -2.6864925167
 H        -9.5078776142        1.4636946325       -2.3381525575
 H       -11.2486924990        1.8828031841       -1.8153840829
 H        -7.7951863673       -0.6753148924        1.4724417737
 H        -9.5769968000       -0.9953058543        1.4420698546
 H        -8.2498366455        0.3531063527        3.9619201975
 H        -8.7230482051       -1.4067393329        3.6867022600
 H       -13.3193396597        1.6017797111        4.8575956856
 H       -12.8363178369        1.7479621566        3.2385275530
 H       -12.6722896340        4.3411870440        4.8164315972
 H       -14.3290506435        3.6933108817        4.9505891850
 H       -14.1193889348        8.1755931112        1.5852579058
 H       -13.0931976608        6.7498620601        1.0862944120
 H       -12.0062073323        8.9526373694        2.9040385068
 H       -11.7375272937        8.9123528510        1.1366354515
 H        -7.0781884179        7.5221403640        1.2495318938
 H        -6.4007930292        6.1825623929        2.0009116496
 H        -6.6097520344        7.6939214758        3.0384444305
 H        -8.7035062614        9.3143993035        4.0391593438
 H        -9.9701106396        9.7095021049        2.9954850878
 H        -8.4985399237        9.3048946456        2.2169928463
 H        -9.3254998535        7.6049616329        5.2816722485
 H       -10.1515129211        6.2220030936        4.7741436922
 H       -10.9840578897        7.7981763570        4.7190992843
 H       -16.3268463467        6.2269014897        1.6909118128
 H       -16.1009552429        4.4955564106        1.7183829448
 H       -15.0080806613        5.4818862427        0.8541557535
 H       -16.5286523064        6.1620239031        4.0874094847
 H       -14.9973256738        5.8092535800        5.1149368337
 H       -15.9974233922        4.5595263621        4.6297169188
 H       -12.3672259211       -0.4951735678        5.0131999250
 H       -12.1725094829        0.5643766803        6.5398378605
 H       -11.0675905152       -0.7856434687        6.1921832499
 H        -8.6619299755        1.6071517424        5.4179451062
 H        -8.9544567687        0.1236912387        6.0632933045
 H        -9.6608927715        1.5201356603        6.9103023375
 H        -6.8607905641        0.0805253222       -0.3748646506
 H        -7.2304470158        1.2288525734       -1.7197664893
 H        -8.3668716889        0.0991180835       -1.3239749781
 H        -6.5333440405        2.2180079254        1.2401193416
 H        -7.7765621843        3.3731772950        1.4004205783
 H        -6.7487466334        3.3411323925       -0.0821192812
 H        -6.0283223473        5.4009439806       -3.5778165097
 H        -7.1377845876        6.0259960417       -2.1222344892
 H        -6.6510303346        7.0815289197       -3.4851423360
 H        -9.7742563594        6.6348302760       -2.8012470687
 H       -10.0308308171        6.3921406634       -4.4093346039
 H        -8.8933317950        7.6108524451       -3.9549415601
 H        -4.7697825234        1.7482467850       -9.6670590075
 H        -5.5361489099        0.1759975303      -10.0136740717
 H        -4.5829995234        0.3825678678       -8.6366059755
 H        -7.8613703236        0.7964709757      -10.1707274597
 H        -7.4276337056        2.4822182335      -10.1077102698
 H        -8.7103999597        1.7614113808       -9.0543156126
 Na      -10.3851262483        4.1190850014        2.3466752161
