117

 C        -6.0889204548       -1.7061858770       -7.2066241184
 C        -6.6892626905       -0.2336969555       -7.1845626523
 O        -7.4810476820        0.1384330101       -6.3388616809
 C        -6.3799665151        0.7018427680       -8.4555604759
 C        -6.3774801857        2.1376248627       -7.9755142732
 O        -5.4092635830        2.8220805331       -8.0478689333
 C        -7.7909181117        2.6978286111       -7.6177006647
 C        -7.7242147063        4.0665412363       -7.0380961169
 C        -8.6911246465        4.4486198720       -5.8529777157
 O        -9.8547190759        4.0842570503       -5.8589915829
 C        -8.0272868072        5.4511516305       -4.6962892699
 C        -7.8592302303        4.4540834101       -3.5007143242
 O        -6.8127994424        3.8241705394       -3.4122580749
 C        -8.9879082766        4.2077045735       -2.3922945291
 C        -9.2978842984        2.6599011279       -2.0374962007
 C        -9.4266294137        2.4625578947       -0.4993821304
 O        -9.9818020252        3.3054571291        0.1750738973
 C        -8.5616096937        1.3852025143        0.3463477358
 C        -9.4589564952        0.8903290683        1.5497261648
 O       -10.0156275609        1.7060164450        2.2782585714
 C        -9.6646508198       -0.5593349974        1.9365381591
 C        -9.9875423769       -0.9187027081        3.3642328777
 C       -11.0390785033        0.0433886620        3.8998102042
 O       -12.1558706859       -0.0174284082        3.4041165357
 C       -10.8894481797        0.9417089124        5.1724988320
 C       -11.3174019615        2.3982847121        4.7366092710
 O       -10.5108119104        3.3029028752        4.7954698014
 C       -12.7114675636        2.5251296605        4.1444344280
 C       -13.2193900825        3.9610971933        4.3877215819
 C       -13.3705047433        4.7530063424        3.0681563174
 O       -12.4771948925        4.6701126282        2.2558834858
 C       -14.5763375855        5.7504573698        2.8825511072
 C       -13.9671359988        7.1336952920        3.5114766345
 O       -14.0368173393        7.3564803508        4.6879519475
 C       -13.2792311126        8.1885975860        2.5476560690
 C       -11.9172052576        8.6183837787        3.1503103245
 C       -10.8122761614        7.6410168328        2.6609852252
 O       -10.9319116684        6.9834361170        1.6784185654
 C        -9.4187536554        7.7019790576        3.4836327746
 C        -8.2260030778        7.0826330835        2.6727382791
 O        -8.1915311292        5.8831665623        2.4941185636
 C        -7.1465625891        8.0224078303        2.2314623068
 C        -9.2296055849        9.2283151354        3.8299315901
 C        -9.6055058393        6.9231271426        4.8321862135
 C       -14.8922592419        5.8967972011        1.3202659152
 C       -15.8112109807        5.3593361194        3.7006915406
 C       -11.6654583488        0.3029241000        6.3022049427
 C        -9.4986296453        1.0543545698        5.7674983798
 C        -8.0766037050        0.0756078678       -0.4355326915
 C        -7.3946849731        2.2208840116        0.8964497520
 C        -6.6680644034        6.1811533214       -5.0692279182
 C        -8.9899699913        6.5850951328       -4.3129181191
 C        -5.0734958775        0.2698276341       -9.1786562463
 C        -7.5845584243        0.3878275958       -9.4840630178
 H        -5.0412652512       -1.6871134309       -7.5658790223
 H        -6.7013517834       -2.2134613700       -8.0165910626
 H        -6.1865420522       -2.1460027078       -6.1541953375
 H        -8.3791588741        2.0615822569       -6.9171549046
 H        -8.3204305232        2.7360844086       -8.5225667828
 H        -7.8730754748        4.7541397710       -7.9028638430
 H        -6.6709710357        4.2350066173       -6.6650780864
 H        -9.9108398896        4.7723101629       -2.6103802413
 H        -8.4996787460        4.7208055984       -1.5188081031
 H        -8.5191193119        2.0511904182       -2.3718313153
 H       -10.1827180034        2.2910452171       -2.5454843044
 H        -8.7872400577       -1.1880953969        1.7111742997
 H       -10.4845882362       -0.8691975765        1.2477312830
 H        -9.0524321423       -1.1138319715        3.8938242164
 H       -10.4900542064       -1.8805792218        3.2934281313
 H       -13.4305536210        1.7693533169        4.4069871028
 H       -12.4581750422        2.4244685122        3.0869068920
 H       -12.4422481716        4.5562584706        4.9554664500
 H       -14.2503640960        4.1041334963        4.8133177536
 H       -14.0393635074        8.9922922910        2.4088329830
 H       -13.1490280825        7.8284879065        1.4991722925
 H       -11.9223180215        8.7604417272        4.2922620604
 H       -11.5107060213        9.5702368740        2.7519538462
 H        -7.5955290218        8.7281316889        1.5110528169
 H        -6.3169262567        7.3847720086        1.8449777843
 H        -6.8015517709        8.5973688092        3.0855219013
 H        -8.1904543548        9.2889640290        4.1353670331
 H        -9.8763481434        9.6358894332        4.5681342358
 H        -9.3345672275        9.8488325068        2.9428815880
 H        -8.7464297181        7.2806445999        5.4107113001
 H        -9.5826834389        5.8373809555        4.7348142915
 H       -10.5341492519        7.1548254671        5.3652544299
 H       -15.8578061096        6.3677226896        1.2319625060
 H       -15.0077831256        5.0013486454        0.7087148437
 H       -14.1351569896        6.4361578602        0.7720768407
 H       -16.7707615289        5.8136931120        3.3419867209
 H       -15.6812737294        5.5898861969        4.7821358028
 H       -16.0592821404        4.3547082619        3.5842893005
 H       -12.7364889056        0.2691719763        6.0835899980
 H       -11.4442624501        0.8018672079        7.2472565689
 H       -11.3393520354       -0.7412334822        6.3304066448
 H        -8.6992758242        1.3246320657        5.1312097043
 H        -9.1653250977        0.2053956188        6.2675747053
 H        -9.4451157092        1.8507155097        6.5787811564
 H        -7.2042002697       -0.2615109661        0.1177798527
 H        -7.6879065421        0.2823363828       -1.4941871016
 H        -8.8126532680       -0.7429471997       -0.5755918026
 H        -6.7672045847        1.7099444541        1.6395918398
 H        -7.7199517363        3.1595242208        1.2848339491
 H        -6.6667458208        2.4447375220        0.0778514199
 H        -5.7498681380        5.6284228869       -4.8719217799
 H        -6.5957682816        7.1279743318       -4.4959287708
 H        -6.7348531840        6.5318240261       -6.1417308391
 H        -8.6359909237        7.1159250024       -3.4880121826
 H        -9.9245179486        6.1916092841       -4.1409291129
 H        -9.1425281214        7.2026400971       -5.1947840461
 H        -4.9765926975        0.6961259206      -10.1973287486
 H        -4.9837500526       -0.7933986349       -9.3117221885
 H        -4.1434092815        0.5970318717       -8.7061877656
 H        -7.5139892359       -0.6125879622       -9.8249352632
 H        -7.3903610302        1.0668201260      -10.3014024801
 H        -8.5930250233        0.4981433800       -9.1411431067
 Na      -10.1239525893        4.3146803205        2.4904267820
