117

 C       -14.1917760623        4.4201297651        0.3299096600
 C       -12.9652950421        3.6966639171        0.8833895230
 O       -12.6097409410        2.7137961795        0.2252961113
 C       -12.2000094351        4.1504542173        2.1904908087
 C       -11.6738440319        2.7425616916        2.7723465281
 O       -10.6139246953        2.3023944309        2.3744114665
 C       -12.7104200942        1.9578367514        3.7287022210
 C       -12.4269767028        0.4552153993        4.0697270791
 C       -13.5156851594       -0.4495817827        3.3674939800
 O       -14.6605402550       -0.0182303356        3.2159521921
 C       -13.0789726142       -1.8239866410        2.7617986831
 C       -12.4944682507       -1.2309581339        1.4446495880
 O       -11.6262252612       -0.3683132822        1.5892666602
 C       -13.1161023241       -1.5949440304        0.1354840941
 C       -12.0165895883       -2.6436836012       -0.6842741376
 C       -11.1073546374       -1.8522783126       -1.5609720109
 O       -11.3230246200       -0.7167393536       -2.0334784421
 C        -9.7994112720       -2.5086084496       -2.1326085384
 C        -8.6174061019       -2.3437488338       -1.0039829126
 O        -8.8868608192       -2.3395793805        0.1816766906
 C        -7.1256989621       -2.2700005795       -1.5801303090
 C        -6.4978445269       -0.8300500688       -1.4139279060
 C        -7.4348175057        0.2991350399       -1.0426203046
 O        -8.6584981495        0.1240233624       -1.0256730731
 C        -6.9526190136        1.6082460890       -0.5226490793
 C        -7.7917106096        2.8176169664       -1.0904017570
 O        -8.7241997779        3.2998383801       -0.4274832428
 C        -7.3281378262        3.5821516495       -2.3314667176
 C        -7.4625336797        5.1266143604       -2.1630353798
 C        -6.5616953366        5.7177023773       -1.1185884190
 O        -5.9356228304        5.0867763620       -0.2648621256
 C        -6.3200926143        7.2912624192       -1.1079462899
 C        -7.3953917074        8.2264044761       -1.9415614438
 O        -8.1056213103        7.8318432717       -2.8008456556
 C        -7.1929045601        9.8310095152       -1.6577211764
 C        -8.2488435454       10.6830361241       -2.3074508453
 C        -9.4552779781       10.9385601434       -1.4893190546
 O       -10.0888502235       10.0760551664       -0.9742086536
 C       -10.0475265185       12.4002076238       -1.4803322254
 C        -9.9562473841       12.7748425205       -2.9815748626
 O       -10.2772394596       12.0016727647       -3.8871344114
 C        -9.7164721091       14.2756059839       -3.3635968811
 C       -11.5561141787       12.3576605923       -1.2615165885
 C        -9.3627179619       13.4759703680       -0.5689534597
 C        -6.3232666231        7.9078552168        0.4790079522
 C        -4.9775424206        7.5083192724       -1.7370683215
 C        -7.1524526966        1.6080201944        0.9921290022
 C        -5.4604636983        2.0343042672       -0.7390816631
 C       -10.0164145477       -4.1436436749       -2.2694015837
 C        -9.4571888028       -1.9360784582       -3.5498124354
 C       -11.9379858140       -2.5592240140        3.4560723849
 C       -14.3014625086       -2.7209483217        2.6487575050
 C       -11.0074195173        5.0492681858        1.9801321144
 C       -13.0179419289        4.9516491121        3.2989171069
 H       -15.0859092073        3.9375526689        0.7036489189
 H       -14.1140376393        4.2567669514       -0.7243106473
 H       -14.2141098074        5.4793832020        0.6743202556
 H       -13.7031197895        1.9008921787        3.3406323892
 H       -12.7427123989        2.5102303954        4.6800460419
 H       -12.4927781569        0.2129211524        5.1419593855
 H       -11.4489141431        0.1509512067        3.6533428101
 H       -13.4342927573       -0.8547443714       -0.6552035790
 H       -13.9966862042       -2.1460506145        0.3070959746
 H       -12.6245352107       -3.3721053328       -1.2554186468
 H       -11.5219813549       -3.2233867376        0.1325159204
 H        -7.0777654071       -2.6826222931       -2.5370371427
 H        -6.5447475463       -2.7938066437       -0.8728935058
 H        -6.0388491713       -0.5985707846       -2.3414785029
 H        -5.7043714835       -1.0498260325       -0.8380629970
 H        -8.1308224847        3.3461676880       -2.9530173729
 H        -6.3345702115        3.2137051647       -2.7425888724
 H        -8.4813592177        5.3393666324       -1.8732685814
 H        -7.1589299559        5.5765740120       -3.1092141261
 H        -6.2426519679       10.0686142694       -2.1081616543
 H        -7.0521741551       10.2348648051       -0.6035360770
 H        -8.8238278943       10.4997634071       -3.2691418802
 H        -7.8257696909       11.6339807894       -2.5372982255
 H       -10.0584837807       14.9736951569       -2.5845420259
 H       -10.2247311894       14.4640846925       -4.4309954852
 H        -8.7317697596       14.6563065105       -3.5290492084
 H       -12.2196751034       13.1624399199       -1.5498694483
 H       -11.8615969231       12.2129792842       -0.2145927725
 H       -12.0711452318       11.4754213745       -1.7091260443
 H        -9.9875058310       14.3868627193       -0.5377933247
 H        -8.4661158390       13.8774241128       -1.0344388828
 H        -9.2156080680       13.2009727222        0.3952746031
 H        -5.8018906940        8.9196791246        0.5939935462
 H        -6.0338472323        7.0791596793        1.1822864078
 H        -7.3722582642        8.1084390250        0.6470379363
 H        -4.8936301463        8.5725439157       -2.0037938277
 H        -4.7996614727        6.9539378301       -2.5904669575
 H        -4.1642256546        7.1801773466       -0.9787108095
 H        -6.2303459302        1.2873771625        1.5195626324
 H        -7.9769744381        0.9734500308        1.1840296148
 H        -7.5041160638        2.5652368829        1.3761274410
 H        -5.3307780674        3.1074083094       -0.6724018571
 H        -5.1638934341        1.7546945582       -1.7435917212
 H        -4.7960608008        1.7051028880        0.0489259099
 H       -10.3098829845       -4.3720481113       -3.2250300669
 H       -10.7606860655       -4.3711082494       -1.5248201111
 H        -9.1429142776       -4.6810244474       -1.9658423352
 H       -10.2592468030       -1.9360561860       -4.2879040534
 H        -8.6558733567       -2.5041971408       -4.1346548755
 H        -9.1419144680       -0.8737975239       -3.4096773395
 H       -11.1448981797       -1.7926281625        3.4373927815
 H       -11.7517937314       -3.4720584890        2.8630485062
 H       -11.9362092649       -2.7956111186        4.5403069125
 H       -14.8488874379       -2.9524319543        3.5722263615
 H       -13.9775709375       -3.7460621403        2.2997874374
 H       -15.0854553724       -2.5663683878        1.9656646899
 H       -10.2982557785        4.7590290154        1.1719533502
 H       -10.3091307620        5.0728224629        2.7957413839
 H       -11.1575673872        6.0971684433        1.7678137154
 H       -12.4117343331        5.5262876840        3.9660108933
 H       -13.7814754456        4.4663916316        3.9840611192
 H       -13.4912732452        5.7267552579        2.7670892138
 Na      -10.6172466226        1.6071566887        0.1060203759
