117

 C        -6.0523275472       -1.7095473233       -7.0679897843
 C        -6.7199989531       -0.3508170574       -7.2648953866
 O        -7.4395266998        0.0391391534       -6.3801035478
 C        -6.4107865000        0.5233968471       -8.5127505537
 C        -6.4564068380        2.0336781392       -8.0590894625
 O        -5.4386334794        2.7055107484       -8.0892788637
 C        -7.7985035835        2.6121783785       -7.5546839943
 C        -7.7425278473        4.0661218307       -7.0674939036
 C        -8.6701047004        4.4323454309       -5.7896477047
 O        -9.7920994732        3.9654447361       -5.7056679561
 C        -8.1466884960        5.4607761363       -4.7373815820
 C        -7.7480912000        4.4208069349       -3.5028528792
 O        -6.6858982315        3.8444318911       -3.4683047853
 C        -8.8687382304        4.2562212530       -2.4548649797
 C        -9.0590641968        2.7974707865       -1.9784121049
 C        -9.3720995168        2.6030840988       -0.4912479824
 O       -10.1187478163        3.3474355088        0.1529409520
 C        -8.6432617164        1.4010341811        0.4233232406
 C        -9.4965011951        0.9408077375        1.6395018005
 O       -10.0743061898        1.7786768254        2.3391445390
 C        -9.6584069296       -0.6336486824        1.9130168671
 C        -9.9611638400       -0.8551309167        3.3868977510
 C       -11.0837034108        0.0582729940        3.8854714031
 O       -12.2273824500        0.0929288331        3.3595092989
 C       -10.8205039942        0.9604132002        5.1828042788
 C       -11.2776875182        2.3902811255        4.6882504944
 O       -10.5007443048        3.3328430706        4.6949839140
 C       -12.7370841165        2.5611273762        4.2477417506
 C       -13.2442054361        4.0325472607        4.4071715752
 C       -13.3836579551        4.8013809973        3.0696190339
 O       -12.5171149497        4.6987293029        2.1797947199
 C       -14.5307827114        5.8021372408        2.8679307070
 C       -14.0091424240        7.1634081560        3.4881339610
 O       -14.0897209575        7.2875582277        4.6749864887
 C       -13.3521156095        8.1777636531        2.6021037984
 C       -11.9969457135        8.5650172849        3.1511800969
 C       -10.8150472865        7.7203258759        2.6620984257
 O       -10.8462236205        6.9416549142        1.7627762207
 C        -9.3415920689        7.7638311542        3.5379514755
 C        -8.2050555986        7.1644147241        2.7225951304
 O        -8.2443011714        5.9619804578        2.4238857765
 C        -7.0309964100        8.0376544619        2.2265715772
 C        -9.0307131436        9.2098907961        4.0224290724
 C        -9.5936832185        6.8302338604        4.7864154396
 C       -14.8341462461        5.9000653981        1.4060618104
 C       -15.8521023808        5.3866567281        3.5201601513
 C       -11.7972543930        0.3928734552        6.2605121748
 C        -9.3250915937        0.9984186107        5.6656334540
 C        -8.2100766799        0.1924265296       -0.4452175926
 C        -7.3726129692        2.0839814567        0.9482075693
 C        -6.8211121933        6.1493513558       -5.1125567343
 C        -9.0941294228        6.5456167995       -4.2816709993
 C        -5.0515309528        0.3404601496       -9.1591796595
 C        -7.5839869306        0.2798665202       -9.5043769488
 H        -5.0275559702       -1.5133750577       -7.3681816034
 H        -6.4582740960       -2.4939856619       -7.7901685004
 H        -6.1145632405       -1.8983226974       -5.9696390947
 H        -8.2086260103        1.9305578487       -6.7499645152
 H        -8.5029714699        2.5933173217       -8.4074682303
 H        -7.9307239622        4.7086147219       -7.9522962453
 H        -6.6936370046        4.2503640809       -6.7750694112
 H        -9.7570523191        4.6428203674       -2.8719959485
 H        -8.5825639121        4.9277941040       -1.6444662428
 H        -8.2208307318        2.2059514989       -2.2443831650
 H        -9.8474132933        2.3508845573       -2.4752497243
 H        -8.7125546609       -1.1827917862        1.7256076407
 H       -10.4103400647       -1.0212355822        1.2035270745
 H        -9.0558674508       -0.7560736022        3.8570799697
 H       -10.2843679376       -1.8765180187        3.5928282951
 H       -13.3433060532        1.9991482578        4.9628300195
 H       -12.8748535733        2.1413390812        3.2618361218
 H       -12.5066766366        4.5913626692        4.9722574373
 H       -14.1837866653        4.1539792371        4.8338690473
 H       -14.0005470519        9.1133357735        2.6664197481
 H       -13.3912910640        7.9636074209        1.5864989623
 H       -11.9295537895        8.4880852932        4.2369951528
 H       -11.8244630849        9.6220955271        2.9183593318
 H        -7.4258217337        8.6338759873        1.3898299625
 H        -6.2781050984        7.3338379265        1.9970808632
 H        -6.6111646525        8.7186345798        2.9808929265
 H        -8.0759713638        9.1664202456        4.5210355393
 H        -9.7378700134        9.4955488351        4.8186406074
 H        -9.0628422224       10.0250948720        3.2762775364
 H        -8.8246798644        7.1346916996        5.4973729944
 H        -9.3805230866        5.8051744653        4.5003382647
 H       -10.5752766270        6.8336255219        5.2159885665
 H       -15.5242233826        6.7347301879        1.2709256638
 H       -15.4343503672        5.0632912330        1.0432959463
 H       -13.9708071929        5.8889844608        0.7669995860
 H       -16.7210537473        5.9508256529        3.2375888352
 H       -15.7096868760        5.4309021229        4.6119154233
 H       -16.1512251841        4.3893452032        3.2722563297
 H       -12.8325946226        0.5878345804        6.0719817529
 H       -11.4976363164        0.7776364438        7.2411363736
 H       -11.7362392141       -0.6950802147        6.2578702540
 H        -8.6338458858        1.2764644214        4.8893114128
 H        -8.9720874721        0.0069159478        5.9568497368
 H        -9.0614286116        1.5827181031        6.4980094110
 H        -7.2867311908       -0.2177109140        0.0993889474
 H        -7.8891180113        0.4453726981       -1.4783490515
 H        -8.9701531379       -0.5984430092       -0.6243659782
 H        -6.7685365792        1.5490181556        1.6325342910
 H        -7.5935041275        3.0751903791        1.3996693487
 H        -6.7081302115        2.2302226518        0.1111771418
 H        -6.0149601760        5.4771298900       -5.1408465607
 H        -6.6102771914        6.9418267172       -4.4146414662
 H        -6.8981012813        6.6116407578       -6.0701472461
 H        -8.7512272416        6.9463093126       -3.3504385236
 H       -10.1352486850        6.1248001193       -4.2098358572
 H        -9.1429236943        7.2718089084       -5.0645501584
 H        -4.9643775119        0.9698383065      -10.0321308199
 H        -4.7078269351       -0.6696692769       -9.4626341503
 H        -4.2541854499        0.7582966584       -8.5276104189
 H        -7.5533143606       -0.5960332684      -10.0832130362
 H        -7.5039095119        1.1413526549      -10.1410311188
 H        -8.5423393624        0.2580735327       -9.0234558569
 Na      -10.1669889659        4.3248414409        2.3764735048
