117

 C        -5.3578586937       -1.5082411927       -6.8315157520
 C        -6.6217819924       -0.7734012170       -7.2296197305
 O        -7.5999692283       -0.7452857644       -6.4967079297
 C        -6.6222559430        0.0811134783       -8.5408761008
 C        -6.6533127906        1.6066489037       -8.0806301794
 O        -5.6357439024        2.2979241900       -8.2281834298
 C        -7.9481358931        1.9911683433       -7.3818388468
 C        -7.8281266713        3.5026516900       -6.8669003149
 C        -8.6296653271        3.8775847996       -5.6738785649
 O        -9.5141306116        3.1884025692       -5.2067226796
 C        -8.2951560086        5.2898264425       -5.0372528720
 C        -7.4288215209        4.8714731485       -3.6472589403
 O        -6.2603764135        5.0163683797       -3.5191342556
 C        -8.3371861231        4.2106781141       -2.5029223783
 C        -7.6443177803        3.6545860453       -1.2648199838
 C        -8.6132588872        3.0112722006       -0.2931887607
 O        -9.5616546894        3.7088377591       -0.0736381968
 C        -8.5240463695        1.4957985269        0.2627402546
 C        -9.6048136090        1.2187937094        1.3791608325
 O       -10.0906430712        2.0971987564        2.0105313351
 C       -10.0234449726       -0.1892588299        1.7332707103
 C       -10.1803277006       -0.3653836222        3.2351629442
 C       -11.2337000085        0.4628346945        3.9571494900
 O       -12.3988927511        0.3082921363        3.6022384376
 C       -10.9737169840        1.4069127043        5.1953215650
 C       -11.3920068486        2.8212416655        4.6988018288
 O       -10.4893464634        3.5758929581        4.4418232100
 C       -12.8550956099        3.1295996162        4.6264960516
 C       -13.1522608978        4.5635657315        4.3893734874
 C       -13.5463120164        4.8766199226        2.9085029888
 O       -13.0130973394        4.1990651939        2.0360035985
 C       -14.4128544204        6.1687078964        2.5168940135
 C       -13.9371221984        7.3711750897        3.4036270523
 O       -14.0647835257        7.3583302392        4.5969195355
 C       -13.1023869004        8.4978001644        2.7394669578
 C       -11.7009062194        8.7128608343        3.2846392986
 C       -10.8459040869        7.4322186318        3.2295495613
 O       -11.2794150499        6.4245672005        2.7155768852
 C        -9.3629699500        7.3328184101        3.9198187983
 C        -8.3322218782        6.7965360776        2.7785301316
 O        -8.4266379817        5.6492101155        2.3344367098
 C        -7.0400828333        7.6467359511        2.4689010236
 C        -8.9120781569        8.7440722153        4.4785745525
 C        -9.4221262167        6.3077828619        5.0118697281
 C       -14.5331488992        6.3744033862        0.9728763587
 C       -15.8612705543        5.7771099238        2.9873232733
 C       -11.6534760143        0.9528314349        6.4706547041
 C        -9.4164218936        1.5007000369        5.5768587107
 C        -8.7045339846        0.5307014663       -0.9545063189
 C        -7.1560388052        1.2342719866        0.9355293950
 C        -7.5268250675        6.3678586335       -5.8489612901
 C        -9.5331329249        6.0182882979       -4.5537056246
 C        -5.3795304882       -0.1566601089       -9.3606169122
 C        -7.9303942647       -0.2658346755       -9.3200730095
 H        -4.7395008183       -0.7300039799       -6.5453937646
 H        -4.8824070858       -2.0343566096       -7.6483969810
 H        -5.6164412604       -2.1321582671       -6.0241392138
 H        -8.1879734663        1.2710011499       -6.5615389747
 H        -8.6978464499        2.0016335333       -8.1132583552
 H        -7.8743060916        4.1745209201       -7.7175745514
 H        -6.7974322608        3.7024496627       -6.5705746911
 H        -8.9551377224        3.5209010028       -3.0493297473
 H        -9.0228542901        5.0233099147       -2.0858972374
 H        -7.2224514637        4.5692029677       -0.6992041932
 H        -6.7561888782        2.9813460495       -1.4403921151
 H        -9.4218877222       -1.0088701041        1.3610696417
 H       -10.9198666780       -0.3060331129        1.1168711415
 H        -9.1425498322       -0.2788829154        3.5721048662
 H       -10.5377043826       -1.4592779641        3.3933021431
 H       -13.2937163380        3.0432686985        5.6277775557
 H       -13.3421306411        2.4722961630        3.8900110817
 H       -12.2364032181        5.2423674840        4.5265352627
 H       -13.8284366781        5.0601234311        5.0822636540
 H       -13.7089054727        9.4360654979        2.8994644142
 H       -13.0684780322        8.3131832877        1.7049248935
 H       -11.7984762095        8.8394562674        4.3790177733
 H       -11.1983529404        9.5009401549        2.7722785782
 H        -7.2479182668        8.7469967028        2.4390369457
 H        -6.5064919707        7.3158477958        1.5926018435
 H        -6.3343035189        7.4514418746        3.2993488128
 H        -7.9863822995        8.6432086427        5.0765829436
 H        -9.6421148903        9.1497323020        5.2111631658
 H        -8.6249393672        9.6054205492        3.8099211154
 H        -8.7215104115        6.5367931561        5.8225836954
 H        -9.0715381261        5.3908191134        4.5558282189
 H       -10.3967773913        6.2650672277        5.4404773591
 H       -15.5996675507        6.5687134852        0.7964773500
 H       -14.2562670796        5.4030929930        0.5190783494
 H       -14.0408098075        7.2737474254        0.6223194209
 H       -16.5893244634        6.4626273298        2.5851545881
 H       -15.9908723389        5.8454057408        4.0793945060
 H       -16.0421625469        4.7616125787        2.7804862300
 H       -12.7311398477        0.9623682737        6.3338782088
 H       -11.4608267460        1.4829333651        7.4076481475
 H       -11.3798924266       -0.0818451877        6.6811894906
 H        -8.7602959999        1.8135934782        4.7533980322
 H        -8.9856786420        0.5272463864        5.8822168328
 H        -9.2072263553        2.1807324777        6.3992300579
 H        -8.1511504373       -0.4232279457       -0.8635707699
 H        -8.3207315048        1.0836508890       -1.7805530769
 H        -9.7165783194        0.2805661063       -1.1196716816
 H        -7.0900468500        0.2402180541        1.3374269205
 H        -6.9235004699        1.8700719577        1.8168264555
 H        -6.3343000325        1.3473489820        0.2289004664
 H        -6.5362283474        6.1282488784       -6.1790493012
 H        -7.3310702130        7.3612153777       -5.3637329062
 H        -8.0816776878        6.5962884689       -6.7656285281
 H        -9.3144837556        6.8650634762       -3.8859942334
 H       -10.1604119415        5.2280312985       -4.0220559131
 H        -9.9612689767        6.5221692392       -5.4350650089
 H        -5.3157869369        0.5258009417      -10.1991208087
 H        -5.2732341868       -1.1510385836       -9.7983223954
 H        -4.5030253411        0.0632579803       -8.7358982050
 H        -7.7491394425       -1.0355143716      -10.0346784247
 H        -8.2327475391        0.6141258800       -9.9317107143
 H        -8.7605455328       -0.4187649766       -8.6290290593
 Na      -10.5019355471        4.2977152429        2.1619083046
