117

 C       -14.2096790502        4.5988784904        0.4694481870
 C       -12.9494292714        3.8173552867        0.9674294368
 O       -12.5607206623        2.8227725071        0.4129343992
 C       -12.0955325485        4.2337581850        2.2225013229
 C       -11.7466765139        2.8165968286        2.8158792855
 O       -10.6878208181        2.3653117598        2.4646226943
 C       -12.6987028826        2.0291716829        3.6834834057
 C       -12.4080261644        0.4993572849        3.9914066445
 C       -13.5951799455       -0.4015578668        3.5146803025
 O       -14.7563875735       -0.0738736110        3.4290461635
 C       -13.1287296406       -1.7660044170        2.7380262562
 C       -12.7018852381       -1.2179869482        1.3749779378
 O       -11.8081578421       -0.3380685180        1.3719653403
 C       -13.2478602346       -1.6814358753        0.0934213980
 C       -12.0849670489       -2.6980332176       -0.7144180892
 C       -11.1900794240       -1.8755414110       -1.5486872987
 O       -11.3663658968       -0.7218129147       -1.8329521313
 C        -9.8736295875       -2.7069907184       -2.0638689878
 C        -8.6453717203       -2.2839239871       -1.0935556982
 O        -8.9506965282       -2.2552284044        0.0949314140
 C        -7.1900656026       -2.1636210721       -1.5197159782
 C        -6.5135033787       -0.7349661708       -1.4134703705
 C        -7.4528154138        0.3966532355       -0.9870552492
 O        -8.6799440349        0.2254482759       -0.8516415943
 C        -6.7983777767        1.8059419642       -0.4386009690
 C        -7.6878976254        2.9294993609       -1.0198532388
 O        -8.6999507635        3.1753934214       -0.4387279637
 C        -7.3111408366        3.6807814653       -2.3962808299
 C        -7.4096970357        5.2489998771       -2.1072112498
 C        -6.5040207215        5.8172334813       -1.0084216489
 O        -5.9366677366        5.1812407366       -0.1731021761
 C        -6.2899605920        7.3825704437       -1.1472045792
 C        -7.3348323624        8.1631749344       -1.9787682346
 O        -8.3300756621        7.7070961029       -2.6048623086
 C        -7.3137224261        9.6709351336       -1.6328783921
 C        -8.1810491498       10.5209894790       -2.4699192376
 C        -9.5006864495       10.7931958400       -1.5982785826
 O       -10.0481417428        9.9424859025       -0.9247288151
 C        -9.9728851016       12.3959474305       -1.6892511086
 C        -9.9501622116       12.8865293504       -3.1935643305
 O       -10.3383137028       12.1865267076       -4.0753755961
 C        -9.5598345799       14.3749988836       -3.5505475088
 C       -11.4834539395       12.3806795193       -1.4207980557
 C        -9.2482739652       13.2494997995       -0.7037259032
 C        -6.1205239817        7.8383730426        0.3268050292
 C        -4.8976256531        7.5275788315       -1.8093709599
 C        -7.2116244053        1.5440644775        1.1160342307
 C        -5.2805441895        2.1766733756       -0.5708202628
 C        -9.9207814374       -4.2433529867       -2.2434668659
 C        -9.4623262076       -2.1657576427       -3.3798983525
 C       -11.9874030272       -2.6465058938        3.3068153255
 C       -14.3637187874       -2.7104508859        2.6442827543
 C       -10.8401622096        4.9480598368        1.7088672990
 C       -12.9201163407        4.9179801394        3.3659387294
 H       -14.8891797193        4.7520253416        1.3151287054
 H       -14.6373334525        4.1172945979       -0.3572122744
 H       -13.8124921377        5.6096992546        0.3203781032
 H       -13.6028038084        1.9860447472        3.1905340771
 H       -12.9044874608        2.5096893050        4.5791916122
 H       -12.2522353757        0.3140613750        5.0418329246
 H       -11.4991183161        0.0747285382        3.3691435859
 H       -13.2930878724       -1.0122782249       -0.7393358465
 H       -14.2203993474       -2.0766255362        0.1091320460
 H       -12.6900489603       -3.3266269480       -1.3747992617
 H       -11.5497919231       -3.3720961538       -0.0681640542
 H        -7.0826981710       -2.6190488065       -2.4882570486
 H        -6.6396352616       -2.7873694405       -0.8106823547
 H        -6.0214473034       -0.6614580430       -2.3877341275
 H        -5.6144541076       -0.9123222217       -0.7271347418
 H        -8.0571153769        3.4572109207       -3.1578732590
 H        -6.3083286562        3.4195545772       -2.7805712992
 H        -8.4305029972        5.4877150422       -1.7734302969
 H        -7.1741173821        5.7245087002       -3.0501841486
 H        -6.2601980488       10.0141260795       -1.4626770043
 H        -7.7125485533        9.7155540094       -0.5778816856
 H        -8.4766736586       10.1284981415       -3.4634369482
 H        -7.7498766114       11.4687342652       -2.6999342707
 H        -9.4799489394       15.0503531070       -2.6644785971
 H        -9.9669221971       14.8477420282       -4.3918471860
 H        -8.4588329838       14.3513937397       -3.7591754255
 H       -12.1899545962       12.9852116118       -1.8504616845
 H       -11.6880534962       12.5144449766       -0.4306891899
 H       -11.9153650948       11.4705823735       -1.6104704538
 H        -9.6313287410       14.2036850910       -0.7208922987
 H        -8.1899142793       13.4670981605       -0.9565941809
 H        -9.4789428896       12.8788347105        0.3507576531
 H        -5.7544317249        8.8492622136        0.3400075258
 H        -5.4699917214        7.0480877490        0.8621076474
 H        -7.0868330932        7.8742510997        0.7504453346
 H        -4.7659980872        8.4911866041       -2.3829546613
 H        -4.7960791547        6.7291030860       -2.5542554472
 H        -4.1151779203        7.3238996620       -1.0910420324
 H        -6.6321183325        0.7569667384        1.5484213471
 H        -8.3129753032        1.2423754190        1.0023011269
 H        -7.2575565312        2.4463706647        1.8451845577
 H        -5.0938348222        3.1832171329       -0.5286282418
 H        -4.7889274402        1.7652268758       -1.4554255868
 H        -4.8244844548        1.8861308817        0.3462902199
 H        -9.6738960128       -4.4850344179       -3.2982559802
 H       -10.9146278492       -4.6013179601       -1.8642792022
 H        -9.1710536603       -4.6489262425       -1.5695936009
 H       -10.2317827926       -2.3675472324       -4.1646383075
 H        -8.5833738867       -2.5929994772       -3.8053048220
 H        -9.3423953253       -1.0615676990       -3.3057470734
 H       -11.1674936535       -2.0020074123        3.7199070958
 H       -11.6706101899       -3.2386277866        2.3815894561
 H       -12.1758267192       -3.3482852509        4.0928194881
 H       -14.8596122480       -2.8820711890        3.5793606692
 H       -14.2000770814       -3.7056251721        2.2901039334
 H       -15.2162904519       -2.4077903368        1.9425943976
 H       -10.4112159966        4.5868533187        0.8185437210
 H        -9.9609463565        5.0288226919        2.3208052328
 H       -11.0430033632        6.0397957331        1.4027653664
 H       -12.3359535453        5.2338509420        4.2493676524
 H       -13.7888028482        4.3387157096        3.6860732241
 H       -13.3018282026        5.8542530705        3.0131081047
 Na      -10.6695053404        1.3781876005        0.1248971164
