117

 C        -5.4033107959       -1.6451033005       -6.8158403034
 C        -6.6115921541       -0.6997153069       -7.1611142852
 O        -7.6337071055       -0.7560009536       -6.5102658321
 C        -6.5221195332        0.1684145812       -8.4905888639
 C        -6.6515471045        1.6935707876       -8.0537205404
 O        -5.7378914271        2.4405052315       -8.2028968916
 C        -8.0160235947        2.1886851709       -7.4431874891
 C        -7.7541185656        3.7011702770       -6.9252529789
 C        -8.6174730966        4.0178158585       -5.6813585545
 O        -9.5073044341        3.2969250096       -5.2402436429
 C        -8.2818974341        5.3819156367       -4.8976671777
 C        -7.5599761976        4.8262853653       -3.5915293771
 O        -6.3410904946        4.6782958963       -3.5176724450
 C        -8.4220903697        4.2369159359       -2.4769881364
 C        -7.6675460150        3.7321113677       -1.2602979452
 C        -8.6532375315        2.9564879814       -0.3046578169
 O        -9.6928705894        3.5578918943        0.0363450747
 C        -8.4427946829        1.4868433202        0.2472895774
 C        -9.6526594104        1.1225155785        1.3635930341
 O       -10.1030389222        2.0704284643        2.0242312790
 C       -10.0596644353       -0.2954026867        1.7281658876
 C       -10.1064829177       -0.4287642714        3.2553439228
 C       -11.2976642258        0.3581722090        3.9420123890
 O       -12.4840925696        0.2482966693        3.6296375439
 C       -10.9331179693        1.3468449179        5.1759213998
 C       -11.3546882864        2.7806132568        4.6989864010
 O       -10.5681898053        3.6564330620        4.3326580495
 C       -12.8702340494        3.1011982329        4.7105370926
 C       -13.1660558537        4.5754390919        4.3824593659
 C       -13.3598664749        4.9573839333        2.8412323308
 O       -12.9400864322        4.2181017748        1.9748932959
 C       -14.4604724563        6.0890137591        2.5459537188
 C       -13.8653573464        7.2972259504        3.4003319129
 O       -14.1067635882        7.2769787373        4.5746599671
 C       -13.0205243874        8.5101497262        2.7763152812
 C       -11.6805323423        8.6761052380        3.3532281331
 C       -10.7998018083        7.4280887519        3.1618419534
 O       -11.2719650255        6.5287738253        2.5028906780
 C        -9.3713639808        7.3499966813        3.7980103789
 C        -8.3052680353        6.8646041910        2.7907186359
 O        -8.4467163600        5.7551396215        2.3551202046
 C        -7.0718558763        7.6479433341        2.4953442940
 C        -9.1437754397        8.7350207715        4.4194759669
 C        -9.3311174719        6.3270797762        4.9391250206
 C       -14.6309639456        6.2934807719        1.0381298190
 C       -15.7857092375        5.6553351398        3.1925681738
 C       -11.6539160612        0.9312042930        6.4494115109
 C        -9.4078817290        1.4250826718        5.6308062420
 C        -8.6016168028        0.4717764527       -0.9135861427
 C        -7.1035034040        1.3301794336        0.9754121749
 C        -7.4042713961        6.2649725193       -5.8145271024
 C        -9.6039605570        6.1961683518       -4.6104032157
 C        -5.3347645395       -0.1283152078       -9.4182217553
 C        -7.7616911297       -0.2013709405       -9.3296952261
 H        -4.5654729031       -1.1876596918       -6.3716532230
 H        -5.0874693201       -1.9421292731       -7.8116149646
 H        -5.8219210507       -2.4932045901       -6.2486952068
 H        -8.2048078694        1.5895253002       -6.5101605013
 H        -8.8797890550        2.1859504102       -8.1314077083
 H        -7.9449121409        4.4258194769       -7.7009760559
 H        -6.6684501016        3.8364265828       -6.8385191690
 H        -8.9832288394        3.4600435600       -2.9667802804
 H        -9.1145240846        4.9750853131       -2.1715447261
 H        -7.1174875055        4.5104162036       -0.7111093265
 H        -6.8853231902        2.9714952580       -1.6012360505
 H        -9.4776462047       -1.0263763200        1.1953569304
 H       -11.0348574719       -0.4457312152        1.2589468915
 H        -9.1079003241       -0.0680925699        3.5865930077
 H       -10.2294738377       -1.4631712750        3.5693293787
 H       -13.4144369152        2.9712795194        5.6406444022
 H       -13.3028601372        2.5343257143        3.8602853668
 H       -12.5108244107        5.2569513592        4.7802625801
 H       -14.0752005224        4.9299290988        4.8390914039
 H       -13.6016328382        9.3777445669        2.8439512639
 H       -12.9023511858        8.2847347323        1.6982613274
 H       -11.7699907107        8.9827672049        4.3699662556
 H       -11.1489085098        9.3620102581        2.7515002277
 H        -7.3744547351        8.6916734854        2.4305268341
 H        -6.6701128890        7.2412987572        1.5582160263
 H        -6.2550955798        7.5246106616        3.1761120304
 H        -8.1425221085        8.8451153952        4.9083511141
 H        -9.8252575652        8.9281865995        5.2437120732
 H        -9.1672947814        9.5894872207        3.7214479008
 H        -8.3783456539        6.4933695855        5.4357216951
 H        -9.3025142354        5.3198487238        4.5886274473
 H       -10.1020822007        6.5819416266        5.6547915809
 H       -15.6074532543        6.6787372877        0.7795230496
 H       -14.4352216682        5.2992805732        0.5925610206
 H       -13.9114711994        7.0569714965        0.7306471469
 H       -16.5229156201        6.3678582705        2.7812321228
 H       -15.8715635727        5.7829211001        4.2745697849
 H       -16.0214594614        4.6555031830        3.0273068501
 H       -12.7428201937        1.0179622765        6.3593880591
 H       -11.3619463837        1.4863166094        7.3253992035
 H       -11.4342232918       -0.0961528800        6.7063876372
 H        -8.7275643941        1.8376723517        4.9190116877
 H        -8.9793863871        0.5002396389        5.8821897102
 H        -9.2759127618        2.0599856570        6.5677258698
 H        -8.1729198828       -0.5067045366       -0.7106040940
 H        -8.1371654404        0.9572779674       -1.8299062520
 H        -9.6739388319        0.3292419261       -1.1459645663
 H        -7.1154284257        0.3903400343        1.5360684510
 H        -6.9654024600        2.0095697294        1.7542052664
 H        -6.1940416365        1.2879441229        0.3538615066
 H        -6.4871684871        5.8403972046       -6.0937328598
 H        -7.1678030395        7.2427180860       -5.5056287914
 H        -7.9126366729        6.3687088669       -6.7612751045
 H        -9.3994569521        7.1281957461       -4.0484822590
 H       -10.2638037762        5.5680804251       -4.0581797528
 H        -9.9465179768        6.6140797611       -5.5984720495
 H        -5.3992091146        0.5510558325      -10.3109374275
 H        -5.2948962127       -1.1342372632       -9.8250590800
 H        -4.3654583840        0.1040798754       -8.9517196501
 H        -7.5487189241       -1.1207545375       -9.8394356117
 H        -7.9853946650        0.4872034372      -10.1236336755
 H        -8.6018408572       -0.2617693641       -8.6775058611
 Na      -10.4081666102        4.3157609292        2.1745222118
