117

 C        -5.6369829513       -1.6530910724       -7.1199133596
 C        -6.6972956312       -0.5523808891       -7.1416501953
 O        -7.6357788555       -0.4237917799       -6.3890938701
 C        -6.5282700480        0.3805312023       -8.4412874802
 C        -6.6460936989        1.8417167939       -8.0726631414
 O        -5.7174631403        2.6136008780       -8.1264186980
 C        -7.9919319285        2.3250931660       -7.4463379527
 C        -7.8026879214        3.8316687178       -7.0366599834
 C        -8.5992667804        4.2309193506       -5.7846648926
 O        -9.5717233604        3.5513840360       -5.4574315965
 C        -8.1343163184        5.3726871772       -4.7153274721
 C        -7.7108486074        4.5139245533       -3.5095930359
 O        -6.5961419125        3.9946447628       -3.4427384667
 C        -8.7417955994        4.3249335026       -2.4381010687
 C        -8.1948069370        3.2499951284       -1.5942982915
 C        -8.9660646440        2.8925382776       -0.4006826091
 O        -9.9836201559        3.5242351084       -0.0835844016
 C        -8.6439424590        1.5057470489        0.2977013365
 C        -9.5824527357        1.0961693897        1.4824210965
 O       -10.0008535182        1.9391427437        2.2993196536
 C        -9.8538354378       -0.3469350067        1.8337585994
 C       -10.0465769666       -0.6968950496        3.2911040672
 C       -11.2108616569        0.0631987547        3.9300918117
 O       -12.3518611256        0.0712032403        3.3991664638
 C       -10.8364969006        1.0950078788        5.1160199527
 C       -11.3383434632        2.5690630786        4.6094945782
 O       -10.5119095600        3.4341237239        4.4406472815
 C       -12.7907631875        2.8767872038        4.5739375265
 C       -13.0555497708        4.4097434140        4.5306888930
 C       -13.3299896564        4.9133247713        3.0134382963
 O       -12.6143388737        4.5284244538        2.0904428383
 C       -14.5479993224        5.8753781896        2.6869904753
 C       -13.9424502463        7.1684731526        3.4525653481
 O       -14.0876403035        7.2281820077        4.6315094709
 C       -13.0976926947        8.1649866531        2.6231903297
 C       -11.8402482480        8.5979322716        3.3542019128
 C       -10.7567173196        7.6450695264        2.9615371463
 O       -10.9687260340        6.8132437427        2.1114740345
 C        -9.3663468668        7.6138293897        3.7520907643
 C        -8.3133470406        7.0183928429        2.7153876272
 O        -8.4249062957        5.9683483208        2.1083880387
 C        -7.0958682835        7.9227120385        2.3526287253
 C        -8.9163111303        8.9973545052        4.2798350791
 C        -9.5295019601        6.5635588871        5.0028843524
 C       -14.7450335074        6.0586723744        1.1906636313
 C       -15.8988691717        5.4897265454        3.3184732699
 C       -11.7199490909        0.6201494745        6.2731094313
 C        -9.3955436159        1.2735309795        5.6093211275
 C        -8.5149025311        0.3607094517       -0.7568459458
 C        -7.2850173813        1.8112700980        1.0775586267
 C        -7.0160402256        6.2983657418       -5.0801660640
 C        -9.3776940932        6.2810823774       -4.5727592931
 C        -5.1569561454        0.2469898939       -9.1465837126
 C        -7.6312556126        0.0038862769       -9.3943786721
 H        -4.7317905956       -1.1866029977       -6.9248130177
 H        -5.4935941993       -2.0220821079       -8.1473531032
 H        -5.9432522270       -2.3350747941       -6.3154422989
 H        -8.3416260748        1.6813783034       -6.6166285844
 H        -8.6569543575        2.3077348151       -8.2284437262
 H        -7.9953212728        4.5063108724       -7.8822993964
 H        -6.7018763576        3.9432216715       -7.0128099755
 H        -9.6251297689        3.9722634450       -3.0129342906
 H        -9.0383823361        5.3177842196       -1.9288107824
 H        -7.1159841819        3.3382254233       -1.3016612795
 H        -8.1377829353        2.3258282690       -2.2277834033
 H        -9.0429895055       -0.9197941080        1.3768274141
 H       -10.7374638300       -0.8376963433        1.3857948515
 H        -9.1401599273       -0.5015638249        3.8638138395
 H       -10.1817593024       -1.8297295436        3.3031342344
 H       -13.3816432553        2.4703618566        5.3864882904
 H       -13.1107348919        2.4672004707        3.6013542602
 H       -12.2363568894        5.1287071976        4.9517481065
 H       -13.9823346154        4.7520675586        5.0854911691
 H       -13.6758772223        9.0995178797        2.3684836029
 H       -12.9146177769        7.7592275679        1.6274912992
 H       -11.9246072429        8.5289309139        4.4992205714
 H       -11.6031629108        9.6256401484        3.0203785872
 H        -7.4979385577        8.8698956097        1.9355533221
 H        -6.3294376391        7.3417204246        1.8628198661
 H        -6.5509154634        8.1873607632        3.2645317407
 H        -8.1798801505        9.0246397833        5.0634923814
 H        -9.7335594857        9.4935034381        4.7663520099
 H        -8.7049096597        9.6305328495        3.4053777646
 H        -8.5568577755        6.2993670878        5.4784742540
 H       -10.0799882894        5.6529936321        4.7405744574
 H       -10.1562418212        7.1425233307        5.6923664144
 H       -14.7287710339        7.1377515658        0.9712209664
 H       -15.7108834507        5.6329474635        0.8124628605
 H       -13.9619886332        5.5165333526        0.6374401952
 H       -16.7488930094        6.1026157859        2.9084415349
 H       -15.8822332342        5.5342976572        4.4413519173
 H       -16.1329141702        4.4843975473        3.1386869549
 H       -12.6314424999        0.0730682705        5.9809671720
 H       -11.9523894167        1.4543036125        6.9800429007
 H       -11.1592274719       -0.1050020828        6.8877162551
 H        -8.7027736295        1.6247237828        4.8485037017
 H        -8.8362822594        0.5165761334        6.1317194991
 H        -9.4144398977        2.1187563027        6.3581539799
 H        -8.7127822221       -0.5850883085       -0.3053443087
 H        -7.5707715092        0.3844022792       -1.2559865067
 H        -9.1836033661        0.5339968102       -1.5358064775
 H        -6.7143198820        0.9367920344        1.4181415295
 H        -7.4539428814        2.3640336407        2.0001510485
 H        -6.5094256344        2.2656161767        0.4226974981
 H        -6.0467874623        5.7997959957       -5.0896698202
 H        -7.1004235519        7.1255662084       -4.2758908662
 H        -6.9729499280        6.7581715832       -6.1281387259
 H        -9.2190743424        6.9084081611       -3.7215753433
 H       -10.2805788792        5.6945282909       -4.4190820032
 H        -9.4653566052        6.9246745166       -5.4687870827
 H        -4.9458800826        0.9322135283       -9.9572869618
 H        -5.0538178116       -0.7334704212       -9.5563740346
 H        -4.3249266007        0.3948829023       -8.4745990585
 H        -7.6148866624       -1.0715305341       -9.5996253164
 H        -7.4867033055        0.4955035503      -10.3988314737
 H        -8.6231826013        0.1877154831       -8.9203626757
 Na      -10.2737197522        4.3778734959        2.0714431309
