117

 C        -4.7161850238       -1.4496138287       -7.1750239918
 C        -6.2344477180       -1.6179225791       -7.2450157392
 O        -6.8887217818       -2.3541872589       -6.5425067003
 C        -7.0529697221       -0.7547665920       -8.3676340120
 C        -6.8255315420        0.7227665657       -8.0322241886
 O        -5.6935778709        1.0836966119       -7.9490320903
 C        -7.9087410901        1.6787404261       -7.5441165538
 C        -7.5357184945        3.0502006060       -6.9806656567
 C        -8.3131378065        3.4652261370       -5.7118528214
 O        -8.5722795512        2.6155453839       -4.8496651242
 C        -8.5305238307        4.9896251020       -5.3287696030
 C        -8.0177342529        5.0379117619       -3.7423236047
 O        -6.9862948441        5.6723958662       -3.5904471848
 C        -8.9096946797        4.4529980760       -2.5942563301
 C        -8.0687607492        3.5843307855       -1.6171683662
 C        -8.8928606173        3.2594597742       -0.2820227574
 O        -9.5394325729        4.1591922746        0.2298232880
 C        -8.8371397036        1.7513993025        0.1484576003
 C        -9.3926173322        1.4122433524        1.6204644659
 O        -9.4393078382        2.2184564735        2.5522085502
 C        -9.6611947696       -0.0404466049        1.8214162746
 C       -10.1839647665       -0.3286675506        3.2761131153
 C       -11.3116790937        0.7227134638        3.4977010897
 O       -12.1430692839        0.8988389302        2.6445386681
 C       -11.3666141670        1.4622008107        4.9085267860
 C       -12.0598120714        2.7929790013        4.6027708961
 O       -11.4411368848        3.8302426126        4.7622783527
 C       -13.5292807406        2.8094062084        4.0292906828
 C       -14.1514390699        4.1617023647        3.8371495553
 C       -13.3828389934        5.0656383608        2.8795883871
 O       -12.3238251568        4.7780601605        2.3834818178
 C       -14.0978499511        6.5127340571        2.4003377022
 C       -13.3888028043        7.4680293959        3.3023814473
 O       -13.5175541526        7.2526139160        4.5059736475
 C       -12.6307704109        8.7329333888        2.8088025571
 C       -11.4047670551        8.8864935210        3.7295623111
 C       -10.4518907246        7.7807031340        3.4472690735
 O       -10.6764138173        6.8554840174        2.6968094008
 C        -9.1227344654        7.8537427299        4.2917304332
 C        -8.0259512317        7.1838368874        3.4356786773
 O        -7.9902756677        6.0278080044        3.0746461615
 C        -6.9124950632        8.0518826863        2.8788560951
 C        -8.6417306187        9.2493174621        4.6477925807
 C        -9.3552202246        7.0596150883        5.5732474270
 C       -13.7646821386        6.7783564491        0.8474604857
 C       -15.6436380607        6.4687847199        2.6173962514
 C       -12.2221544340        0.5011880586        5.7336651089
 C       -10.0134680529        1.7955039136        5.5489615041
 C        -9.7877387112        1.0584573138       -0.9063960302
 C        -7.2734034852        1.3557438527        0.1673315079
 C        -7.7190283038        5.9900266547       -6.1698740783
 C       -10.0243707379        5.3694963618       -5.5226862863
 C        -6.2840284315       -0.9855033655       -9.7355768428
 C        -8.5462425955       -1.0431208086       -8.2020917735
 H        -4.5673793330       -0.4210003491       -6.7424067916
 H        -4.2765640078       -1.5475164789       -8.1507714379
 H        -4.3993647307       -2.1444393314       -6.3759045063
 H        -8.6054993502        1.2343802767       -6.8019552780
 H        -8.6584372158        1.8124565773       -8.3177374598
 H        -7.5573087673        3.8170298609       -7.8011803975
 H        -6.4978665820        2.9152845558       -6.6703231378
 H        -9.7101431666        3.8502842246       -3.0164405625
 H        -9.3521006783        5.2963495085       -2.0308063473
 H        -7.1866534448        4.1354761871       -1.2679777068
 H        -7.6912151587        2.7312927874       -2.1256752025
 H        -8.6704515220       -0.5408934960        1.7206041842
 H       -10.3959623652       -0.4465808556        1.1245838451
 H        -9.4178424713       -0.4441598166        3.9907045549
 H       -10.6161813225       -1.3124939259        3.2966141597
 H       -14.1846897424        2.1732290170        4.6632407220
 H       -13.5644356878        2.2986852816        3.0685290369
 H       -14.2629164572        4.6683437966        4.7757369381
 H       -15.0621635567        4.0817814673        3.3313736754
 H       -13.3151204444        9.6078397309        2.8095177484
 H       -12.2797425312        8.6426839958        1.7877986044
 H       -11.6846982940        8.8552050643        4.8120252751
 H       -10.9606859097        9.9085139184        3.7242831528
 H        -7.3171913851        8.7622066383        2.1442366332
 H        -6.1456587562        7.3998583079        2.3373426287
 H        -6.4577396234        8.6307129066        3.7139664894
 H        -7.7633572980        9.1876352641        5.2870652850
 H        -9.3107948779        9.7678821877        5.3882887210
 H        -8.4407802758        9.8862405805        3.8010707802
 H        -8.3936582344        6.7968572052        6.0123879244
 H        -9.8886299048        6.1686172513        5.2040911304
 H       -10.0676960741        7.5585980036        6.2486951317
 H       -13.7520862906        7.8652404884        0.7438135879
 H       -14.6169909293        6.4016955724        0.2894053834
 H       -12.8767589013        6.1419035535        0.6136482558
 H       -16.0764902493        7.2880606384        2.0788703217
 H       -15.9254925067        6.6665465190        3.6378116322
 H       -16.1644911395        5.4762676138        2.2860618091
 H       -13.2611130383        0.4260925065        5.4090706333
 H       -12.2774495374        0.8047500735        6.7813718978
 H       -11.8529777006       -0.5260051276        5.8307834648
 H        -9.3473942034        2.2865386463        4.8052673075
 H        -9.5225145750        0.8665678426        5.9805142671
 H       -10.2258785418        2.4632805245        6.3581258994
 H        -9.4897647662        0.0760224072       -1.1238288158
 H        -9.8415121069        1.6343714578       -1.8006640592
 H       -10.8047055936        1.1460757187       -0.5484292691
 H        -7.1505282151        0.4952216826        0.8482989532
 H        -6.6627441946        2.1426394521        0.6626219532
 H        -6.9690338046        1.0456691425       -0.8147213127
 H        -6.6057341896        5.7626466546       -6.2059313170
 H        -7.7641489712        6.9619040081       -5.6613701832
 H        -7.9054036117        6.0080101383       -7.2589166531
 H       -10.1350185635        6.3377171678       -5.0029132512
 H       -10.6997939065        4.6753816342       -5.0512291111
 H       -10.1883355201        5.6325872016       -6.5291818431
 H        -6.6704530053       -0.3484315048      -10.4873628496
 H        -6.4022213021       -2.0448513623       -9.9963399024
 H        -5.2377773001       -0.7735938952       -9.5650326149
 H        -8.7065485080       -2.0567685734       -8.6000120927
 H        -9.1941725522       -0.4701783267       -8.8619434224
 H        -8.7784064968       -0.9669981041       -7.1233105967
 Na      -10.0254383200        4.4944807956        2.8711221775
