117

 C        -4.8551912540       -1.2716135579       -6.8895193688
 C        -6.3608677915       -1.4557392544       -7.1826806301
 O        -7.0454364642       -2.2113818630       -6.5054647051
 C        -6.9752213098       -0.5380922789       -8.3637521435
 C        -6.6909174456        0.9505860101       -8.0311792290
 O        -5.5415785683        1.4120338345       -8.0020437854
 C        -7.8028791719        1.8275818960       -7.5661200071
 C        -7.2949555153        3.1973586583       -6.8530467280
 C        -8.2136015391        3.4562301627       -5.6890882510
 O        -8.7305098145        2.5840828231       -5.0459120614
 C        -8.4646042627        4.9718244357       -5.1901844215
 C        -7.9836766526        5.0685258589       -3.7125886343
 O        -6.9006640777        5.4882023676       -3.4663222267
 C        -8.9776213514        4.3983377709       -2.6651538544
 C        -8.1474442342        3.6211444316       -1.6350673727
 C        -8.7783805106        3.3254045579       -0.2474557831
 O        -9.2869007855        4.1590151326        0.4332417187
 C        -8.7563798589        1.7288109881        0.1406844180
 C        -9.2872269602        1.3679624586        1.5640998923
 O        -9.4465547897        2.1285444767        2.4664546121
 C        -9.5684544315       -0.1372886641        1.7904073849
 C       -10.1993281089       -0.4014067517        3.2268414967
 C       -11.2386091631        0.6631973452        3.4460632746
 O       -12.2105965255        0.6519740888        2.6736969562
 C       -11.2691975967        1.5948434969        4.7576538927
 C       -11.9760589541        2.9812220767        4.6710583188
 O       -11.3581742847        3.9994293752        4.9821452301
 C       -13.4296650219        2.9218814206        4.2104880894
 C       -14.1081410938        4.3016552784        3.9832854556
 C       -13.5086808296        5.0365153504        2.7471202771
 O       -12.6080005059        4.5230542079        2.0940702024
 C       -14.1871759609        6.4257073612        2.3931316632
 C       -13.5113954408        7.5022093669        3.4349581329
 O       -13.7094274836        7.3586708158        4.6041660464
 C       -12.7603185204        8.7348261988        2.8692394742
 C       -11.4759932402        8.9957972826        3.5918133692
 C       -10.5409960891        7.7514261051        3.4953531120
 O       -10.9348328655        6.7384385006        2.9012924346
 C        -9.1649911200        7.7805981581        4.1410421811
 C        -8.0626729973        7.0516302452        3.3360852276
 O        -8.1778477958        5.8740813820        2.9996034229
 C        -6.9001360424        7.7913627321        2.7915586450
 C        -8.8025101030        9.2590427036        4.5753479403
 C        -9.2127173652        6.8764391409        5.4777986087
 C       -13.8908428746        6.6032384852        0.8606119037
 C       -15.7086674252        6.5503620346        2.6604638916
 C       -12.0018078037        0.7846034334        5.8351463350
 C        -9.8268520834        1.6578320888        5.2822911937
 C        -9.5661504343        0.9460186617       -0.9617977477
 C        -7.2520237960        1.1815212010        0.0710990143
 C        -7.6207457809        5.9100911077       -6.1210361852
 C        -9.9466810549        5.2772821538       -5.2459651704
 C        -6.4981896945       -0.8721839880       -9.7982970158
 C        -8.5007149692       -0.9719955484       -8.4750797542
 H        -4.7450767797       -0.2790139407       -6.6585951205
 H        -4.3913006048       -1.5112330420       -7.8408480507
 H        -4.4580204574       -1.8558440022       -6.0960641284
 H        -8.3456966461        1.2141562505       -6.8984795703
 H        -8.6204106909        2.0616686024       -8.2466724650
 H        -7.3611314103        3.9538506762       -7.6046589804
 H        -6.2224134731        3.0327050986       -6.6577682682
 H        -9.6665354160        3.6700271072       -3.1993329934
 H        -9.5963377879        5.2002938516       -2.2054224685
 H        -7.2736895672        4.2720614099       -1.4428567541
 H        -7.7855411330        2.6890472233       -2.1719815845
 H        -8.6949283914       -0.7667985806        1.6806075070
 H       -10.3625479743       -0.5224992061        1.1308356579
 H        -9.4658714990       -0.4841977510        4.0748249367
 H       -10.4971430725       -1.4573114336        3.1479611184
 H       -14.0294654601        2.3756037101        4.9450434508
 H       -13.4413082410        2.2904270497        3.2914685045
 H       -13.9665357164        4.9721904706        4.8934015999
 H       -15.2625604256        4.2582472660        3.7530237130
 H       -13.4735085283        9.5241805538        3.0838612140
 H       -12.6262879562        8.7789106670        1.7549492750
 H       -11.6822027582        9.2285459215        4.6421966621
 H       -11.0671185345        9.9575508340        3.2428604069
 H        -7.2062828342        8.7012978561        2.2821418247
 H        -6.5858811164        7.1873263676        1.9789849364
 H        -6.1573052777        8.0185383398        3.5314600466
 H        -7.8534467473        9.4968364470        5.0728747781
 H        -9.4528492695        9.6955141956        5.3019829843
 H        -8.9064017590        9.8228831364        3.6324451629
 H        -8.3654754692        6.2272642603        5.4461884085
 H       -10.1688399537        6.4271842141        5.5912037149
 H        -9.1105159901        7.5490028029        6.3006395948
 H       -14.1789214306        7.6141364197        0.6299502999
 H       -14.5049090502        5.8856881760        0.3183962530
 H       -12.8953840563        6.2434478309        0.7555105273
 H       -16.0795406676        7.6038467083        2.7075786081
 H       -15.9683114257        6.0851328771        3.6255623791
 H       -16.2717557334        6.1421364332        1.8955568246
 H       -13.0050431749        0.4763588101        5.5497550588
 H       -12.1732355193        1.3553733833        6.7460087669
 H       -11.5249240500       -0.1359034346        6.1384528356
 H        -9.3113376611        2.4594738426        4.7779007591
 H        -9.2664017115        0.7814942350        5.1896755444
 H        -9.8535579546        1.8497395562        6.4039723553
 H        -9.5290042412       -0.0855212370       -0.6363307396
 H        -9.1277741493        1.0948668983       -1.9671093523
 H       -10.5700156771        1.3264176046       -1.0355872167
 H        -7.1756820112        0.0857911788        0.1018842766
 H        -6.6944659493        1.6178315276        0.8680659950
 H        -6.8276634705        1.4729663902       -0.9146293525
 H        -6.5662202186        5.8125319841       -6.1202082989
 H        -7.8014915513        6.9357492116       -5.7587869116
 H        -7.8476292603        5.8401864100       -7.2087356162
 H       -10.1702062317        6.1974944061       -4.6646047001
 H       -10.4321517421        4.4412432025       -4.7238281571
 H       -10.2887420463        5.4232376870       -6.3319605284
 H        -7.2450747048       -0.4172355818      -10.5100696689
 H        -6.4823425681       -1.9498582245       -9.8757721740
 H        -5.4972909113       -0.4606194823      -10.0144453670
 H        -8.5860397024       -2.0264771596       -8.7036588355
 H        -8.8987431274       -0.5054631303       -9.3587722464
 H        -9.0584520464       -0.7960516914       -7.5746584339
 Na      -10.0179665986        4.4677964454        2.8770600341
