117

 C       -14.0509580928        4.9516025550        0.8085066896
 C       -12.8587705395        4.0274262217        0.9439561285
 O       -12.8548657536        3.0310053028        0.2559969398
 C       -11.9579519180        4.1712899092        2.2073704581
 C       -11.6727954718        2.7372013583        2.7314961533
 O       -10.6025954553        2.1834109198        2.5978542021
 C       -12.7152536452        2.0074820635        3.6972308997
 C       -12.4582076188        0.4737736949        3.9257044958
 C       -13.6375674640       -0.4960790377        3.6537864786
 O       -14.6836807113       -0.2697119357        4.2188234476
 C       -13.5024659362       -1.6764611939        2.5233185816
 C       -12.8990080593       -1.1848111422        0.9981159058
 O       -12.1527308735       -0.2223756506        0.8425265181
 C       -13.4617053506       -1.9841617198       -0.2013430257
 C       -12.2206426539       -2.8683976138       -0.8840335569
 C       -11.1394307762       -1.9105160615       -1.2970109216
 O       -11.3200986395       -0.7059939225       -1.3360559827
 C        -9.8491483189       -2.7070011901       -1.9819337098
 C        -8.6427379366       -2.2171059169       -0.9673905328
 O        -8.9066137948       -2.1208758588        0.2340815007
 C        -7.2650724157       -1.9136084022       -1.4695881734
 C        -6.6492191324       -0.5808666048       -1.1723446894
 C        -7.6490164076        0.4285768135       -0.5938923773
 O        -8.8107860541        0.3347873015       -0.9655267478
 C        -6.9333443946        1.6940243904        0.0671236774
 C        -7.6508794781        2.8473170969       -0.7165150816
 O        -8.8722992074        2.9725198521       -0.5920045287
 C        -7.0361124700        3.4919865727       -1.9485715034
 C        -7.2794556424        5.0897771273       -2.1467994665
 C        -6.5059426509        5.7174501877       -0.9653041699
 O        -6.1457594465        5.1400086082        0.0212761587
 C        -6.0527419467        7.3766310781       -1.1753080834
 C        -7.3130242369        8.2344162299       -1.5625562893
 O        -8.3250357721        7.6550299152       -1.9930685278
 C        -7.3081643899        9.7616901648       -1.7942424408
 C        -8.4351612692       10.2310345632       -2.7702581115
 C        -9.6272942457       10.7462412352       -1.9890809777
 O       -10.2169892677       10.0844418248       -1.1748321349
 C        -9.9473935811       12.3035509158       -2.1829003612
 C        -9.7642791622       12.9153428563       -3.6593375451
 O       -10.3590696605       12.4823076221       -4.6048709554
 C        -9.0003322161       14.2151137217       -3.7003827710
 C       -11.3709221563       12.5378639136       -1.7729237983
 C        -8.9922228108       12.9919645017       -1.2110528786
 C        -5.4122269022        7.8284323186        0.1768516714
 C        -5.0990304563        7.5115706282       -2.3028743018
 C        -7.1410521850        2.0120389474        1.6472715173
 C        -5.4769447352        1.7391908360       -0.2362121929
 C        -9.7683509446       -4.2687244046       -1.7605328006
 C        -9.8303021549       -2.2744719638       -3.4262908650
 C       -12.1679086511       -2.3328439492        3.0456837524
 C       -14.7970513392       -2.4385150084        2.5410438722
 C       -10.5597651141        4.7142038822        1.6444273003
 C       -12.3214785218        5.1234273788        3.3720458447
 H       -13.8105350067        6.0263558062        0.6518034824
 H       -14.6199935778        4.6661222352        1.6532756662
 H       -14.5445828768        4.6460020787       -0.1678127361
 H       -13.8054906964        2.1183974607        3.4240039673
 H       -12.6509217836        2.6035766962        4.6930334253
 H       -11.9654551493        0.4027821088        4.8644813624
 H       -11.7114038408        0.2683546488        3.1129238928
 H       -14.0268794210       -1.4011785292       -1.0195477705
 H       -14.2529980228       -2.6355590201        0.1178477991
 H       -12.4235963000       -3.3160361337       -1.8896002918
 H       -12.0760602790       -3.6888062965       -0.1488683213
 H        -7.1727159979       -2.1661888040       -2.4944824994
 H        -6.6436431500       -2.6770858887       -0.9837426638
 H        -6.4751857784       -0.1909292969       -2.1927611920
 H        -5.7224531263       -0.6783997065       -0.7484016595
 H        -7.4500097600        3.0044418232       -2.7951650931
 H        -5.9056183852        3.3259681643       -2.1110365441
 H        -8.3554606057        5.2950143622       -2.3081226547
 H        -6.7359942736        5.3638193186       -3.0658063080
 H        -6.3482823319       10.0036870952       -2.1381871602
 H        -7.2909074007       10.2133382498       -0.7788919298
 H        -8.5985907665        9.2975280775       -3.4422983689
 H        -8.1782464963       11.0919343477       -3.3795462233
 H        -9.0087098710       15.0203571626       -2.9102963171
 H        -9.4060405525       14.7539752516       -4.5591479100
 H        -7.9444423538       14.1138099240       -3.9269249686
 H       -11.9029471768       13.5125378262       -1.5856571057
 H       -11.7636978699       12.0008865250       -0.8339972075
 H       -12.1056618083       12.2779465330       -2.6146527151
 H        -9.3566378428       13.9667645787       -0.9815402610
 H        -8.0340500480       13.2437101771       -1.7186885200
 H        -8.9302886475       12.4896000386       -0.2477942516
 H        -4.8491295501        8.8036664280        0.1062389103
 H        -4.5175124911        7.0786010388        0.3233716177
 H        -6.1448442782        7.8421907210        0.9397495828
 H        -4.6404937369        8.5033810746       -2.2195612963
 H        -5.5547655200        7.5464852063       -3.2271729265
 H        -4.3115312027        6.7214514995       -2.2411052230
 H        -7.4729466117        1.2445228525        2.2279243837
 H        -7.7936890653        2.8575185631        1.7820833028
 H        -6.1851129516        2.3158738770        2.0387873032
 H        -5.1318265425        2.6812934274        0.1775911831
 H        -5.2254454371        1.6209317885       -1.3394102933
 H        -4.8236059234        1.0567241699        0.3619422597
 H        -8.7937361400       -4.4790808066       -1.4839191836
 H       -10.0111303195       -4.6722739726       -2.7280989498
 H       -10.4329098501       -4.6357441718       -1.0362711266
 H       -10.7030972142       -2.5898597870       -4.0158603469
 H        -8.8463732735       -2.5632254181       -3.8065924521
 H        -9.7399378786       -1.1652727390       -3.4777061016
 H       -11.5282541586       -1.5260406270        3.3960989757
 H       -11.5828096189       -3.0130951448        2.4405209976
 H       -12.3960360655       -2.8852860790        3.9256171523
 H       -15.0104268834       -2.9033460939        3.4616658432
 H       -14.7990506635       -3.3315751452        1.9296495408
 H       -15.6506601073       -1.8806646275        2.1039031862
 H        -9.8717389014        4.0026297696        1.2426547191
 H        -9.9762550709        5.1509051504        2.3957801513
 H       -10.5480033400        5.3952196148        0.7596892916
 H       -11.4978694877        5.0998592492        4.0896657931
 H       -13.3517929487        4.9237519971        3.8228281341
 H       -12.3753622720        6.1279415952        3.0722547377
 Na      -10.6185531594        1.2537456929        0.1293924250
