117

 C        -4.7209371807       -2.3759784382       -7.9616002946
 C        -5.9138112910       -2.2656598153       -6.9268329926
 O        -5.8256124235       -2.7286630506       -5.8196742798
 C        -7.3359735352       -1.7107882777       -7.4376107583
 C        -7.1687119101       -0.2156697156       -7.4984296782
 O        -6.4096759605        0.3084696598       -8.3038395371
 C        -7.9163824198        0.7355315840       -6.5379945738
 C        -7.7727722498        2.2785237143       -6.5172935220
 C        -8.7825348303        2.7860969024       -5.4715312250
 O        -9.0234099364        2.0940612367       -4.5257458277
 C        -9.3828833584        4.2486821793       -5.5249411797
 C        -8.6532052546        5.0334070431       -4.2883007063
 O        -7.5961511314        5.6120984896       -4.5018252921
 C        -9.1267669882        4.8379989887       -2.7739519506
 C        -8.2108090498        3.7838801083       -2.1304950382
 C        -8.6636351096        3.5658284923       -0.6480996427
 O        -9.3682137284        4.3763505098       -0.0450920344
 C        -8.1248401519        2.3259843541        0.1431539153
 C        -8.5176956173        2.1647697123        1.6577976536
 O        -8.0746493654        2.8862700133        2.5352275058
 C        -9.6248532967        1.1168383340        1.9345397440
 C        -9.9918004231        0.9689714163        3.4433170179
 C       -11.5605457997        0.8269971804        3.4195603666
 O       -12.2400124985        0.3003848925        2.6155718769
 C       -12.3082394937        1.6504940029        4.6034573254
 C       -12.2570173966        3.1162899975        4.1205604469
 O       -11.2036293137        3.7470022450        4.1247746140
 C       -13.5203420536        3.7059497315        3.4533832866
 C       -13.5495458950        5.3036695016        3.4146782469
 C       -12.9443101529        5.9872142913        2.1143815225
 O       -12.0799104516        5.3964052692        1.4659867742
 C       -13.5370244316        7.4007061840        1.8142323173
 C       -13.0146944367        8.4565110272        2.9311326828
 O       -13.5772829786        8.7089507275        3.9769911834
 C       -11.6726124437        9.1645655847        2.5938131577
 C       -10.8019306099        9.1602361161        3.9176480442
 C       -10.2058245809        7.7529624997        3.9776472122
 O       -10.8227149858        6.8016015628        3.4908348971
 C        -8.9112982763        7.5183029763        4.7770161080
 C        -7.8475128555        6.5774080050        4.0063225335
 O        -8.2328424198        5.6593427997        3.3641747549
 C        -6.3146162800        6.7793349057        4.4282163861
 C        -8.3391999243        8.7776017967        5.4516903815
 C        -9.4551790898        6.6079184614        5.8921239412
 C       -13.1719486558        7.8279075134        0.3967494937
 C       -15.1145986079        7.3874870304        1.9541628615
 C       -13.7255997669        1.1177520765        4.7862844840
 C       -11.4561883966        1.6074470252        5.9982294102
 C        -8.6075666801        1.0553135427       -0.6415304628
 C        -6.5534126813        2.3584297770        0.0267545902
 C        -8.9993832281        5.0018198198       -6.8076561728
 C       -10.8955013248        4.0268195807       -5.4079649436
 C        -7.5552399395       -2.2483919002       -8.8326023352
 C        -8.3753277248       -2.1197656990       -6.4008055401
 H        -4.6392614275       -1.4276121469       -8.5770444572
 H        -4.9610899924       -3.2160027521       -8.6825057140
 H        -3.7494505867       -2.4693321724       -7.3819808449
 H        -7.6492623923        0.4565549898       -5.4904717351
 H        -8.9800275714        0.4713280734       -6.6062605258
 H        -7.8512745891        2.7814150723       -7.4855280278
 H        -6.6884718383        2.4623671637       -6.1784984350
 H       -10.1745874464        4.3232842821       -2.7670826335
 H        -9.0865578682        5.8672116281       -2.3667049338
 H        -7.1805711300        4.0566142842       -2.2616463572
 H        -8.4770091617        2.8647289397       -2.6580851478
 H        -9.4418389862        0.1434571021        1.4885083645
 H       -10.4735881250        1.4885163475        1.3524465962
 H        -9.7977490080        1.9260740532        3.9364228946
 H        -9.4160086258        0.1573984839        4.0146723616
 H       -14.4046082186        3.4849576804        4.0461554026
 H       -13.5919096939        3.3550660888        2.4258813976
 H       -12.9629196049        5.7348031351        4.3345431998
 H       -14.5635854747        5.6562540769        3.6569079706
 H       -11.9650175920       10.1853166095        2.2872370772
 H       -11.0752492235        8.7000829280        1.8223947974
 H       -11.5080604889        9.2982978542        4.7495712254
 H       -10.0307937320        9.8789776191        3.8095688074
 H        -5.8625694729        7.7800437437        4.2769958065
 H        -5.6379613308        6.1202100849        3.8421524525
 H        -6.2064759659        6.6061397411        5.5490185007
 H        -7.3763136549        8.4587589339        5.8683866316
 H        -9.0831115875        9.1200873061        6.2042471076
 H        -8.1306200662        9.5964025253        4.7715123436
 H        -9.4239851527        5.5394278933        5.7399493579
 H       -10.4303995916        6.9103721729        6.2220737347
 H        -8.7989130416        6.6612761022        6.7795772156
 H       -14.0261020715        7.7245899596       -0.2818820229
 H       -12.5468070388        7.1436317844       -0.1411827123
 H       -12.7849790074        8.8201834011        0.1187969103
 H       -15.4904067244        8.1179664014        1.2512723665
 H       -15.4465130662        7.4969868019        2.9978084582
 H       -15.5303614964        6.3999673084        1.6772672277
 H       -14.1106026690        0.9443011545        3.7739521038
 H       -14.3798871897        1.7878902436        5.3341389308
 H       -13.6876237916        0.1353396741        5.2554699632
 H       -10.4611151135        1.9780605558        5.8237979149
 H       -11.4911408973        0.6024726247        6.3584486995
 H       -11.9912752391        2.2964315420        6.6831907602
 H        -8.2845255713        0.2131141438       -0.1152881530
 H        -8.1021929958        0.9341055720       -1.6108977469
 H        -9.6699140090        0.9399966326       -0.7596218003
 H        -6.1412501182        1.3685287414        0.3035658680
 H        -6.2157918296        2.9834988419        0.8260612858
 H        -6.1637175238        2.6627288950       -0.9719841607
 H        -8.0333104759        5.3856219996       -6.6766450797
 H        -9.7126874645        5.7778962518       -6.9019763496
 H        -9.1031855004        4.4197023033       -7.6679811637
 H       -11.4994773231        4.9864799381       -5.4161264385
 H       -11.1893711552        3.4537122582       -4.5472437878
 H       -11.2206636758        3.4204727649       -6.2538684273
 H        -8.6019904890       -2.1240162411       -9.0290459162
 H        -7.2889373471       -3.3237193887       -8.8700295924
 H        -7.0126897200       -1.5836161963       -9.5159432323
 H        -8.4159652142       -3.1925522616       -6.3078586069
 H        -9.3260545345       -1.6756206181       -6.6606751839
 H        -8.2305668425       -1.7970770559       -5.3768681214
 Na      -10.1657502052        4.7616090241        2.2416851975
