117

 C        -4.6721222774       -2.3339658563       -7.8530653823
 C        -5.9149799282       -2.3283214578       -6.9678722647
 O        -5.8204840066       -2.8331313891       -5.8776770123
 C        -7.3186337960       -1.6420370641       -7.4324463955
 C        -7.0964707301        0.0175707198       -7.4974675866
 O        -6.3945302728        0.5201905861       -8.3267797436
 C        -7.9356865101        0.8032473932       -6.4788975205
 C        -7.6343555970        2.3234513719       -6.4807813528
 C        -8.6155535414        2.8863509137       -5.4093133899
 O        -9.0015961732        2.1046254703       -4.5612887130
 C        -9.3138808081        4.2635454066       -5.5151456395
 C        -8.6381926717        4.9593387184       -4.3259465472
 O        -7.6767376070        5.6598505972       -4.5079849417
 C        -9.2012236108        4.6548529732       -2.8613234294
 C        -8.2484893224        3.7856906810       -1.9587587848
 C        -8.6710078153        3.6626489597       -0.5566506572
 O        -9.4782699454        4.4266271180       -0.0246659947
 C        -8.0386213241        2.2950816909        0.1651658655
 C        -8.4804450194        2.1179485121        1.6769920956
 O        -8.0871902968        2.9331984108        2.5028172032
 C        -9.5918276862        1.1412827332        1.9567090750
 C        -9.9888495877        0.9773342157        3.4393773399
 C       -11.5280483033        0.8625563496        3.5397243807
 O       -12.0592764469        0.1330256562        2.6957167621
 C       -12.3600189443        1.6531884030        4.5964270335
 C       -12.2496482827        3.1942998995        4.0476698580
 O       -11.2051192859        3.7766662810        4.2614297105
 C       -13.5437843186        3.7986754628        3.4930785058
 C       -13.4912138123        5.3163694585        3.5215585470
 C       -13.0152269431        6.0005241612        2.2344707319
 O       -12.2229561817        5.4458020914        1.4773350054
 C       -13.6687631068        7.3816805292        1.8491303548
 C       -13.1129852274        8.4599289270        2.8779477414
 O       -13.6234061902        8.6181157902        3.9451364646
 C       -11.7670276255        9.1749840887        2.5455765234
 C       -10.8651109427        9.0931512544        3.7485101647
 C       -10.2081025069        7.7114299426        3.8721381927
 O       -10.7714800934        6.7790463070        3.3606008019
 C        -8.8827625604        7.4883812445        4.8092863760
 C        -7.8196507797        6.5463830385        3.9940025915
 O        -8.1250233354        5.6436388817        3.2404005118
 C        -6.4374429716        6.6559117847        4.4112806740
 C        -8.3109711744        8.7062123119        5.4690125575
 C        -9.3458624279        6.4885344839        5.9623189926
 C       -13.2524161802        7.7922378432        0.4626632917
 C       -15.1962793175        7.2856282184        1.9420638438
 C       -13.7082493621        1.1077770242        4.9295603210
 C       -11.5538720828        1.6686296384        5.9588564784
 C        -8.7046296800        1.2070641781       -0.7530125455
 C        -6.5229531680        2.2902009437       -0.0483340021
 C        -8.8871816869        5.0260058579       -6.8496185234
 C       -10.8209324819        4.1184635992       -5.3588285206
 C        -7.6661789915       -2.1749750292       -8.8663129979
 C        -8.4564555039       -2.1121013113       -6.4712008419
 H        -4.5499684004       -1.3077993319       -8.2690144757
 H        -4.7894182209       -3.0319324370       -8.6543435800
 H        -3.7799645762       -2.4871663503       -7.1744789277
 H        -7.9269817320        0.3026977051       -5.4881514128
 H        -9.0231707573        0.7079713330       -6.8355409622
 H        -7.7937615966        2.6100538745       -7.5457145325
 H        -6.5838584323        2.6173434730       -6.2732443103
 H       -10.1673983752        4.1817257319       -2.8854179344
 H        -9.2068613801        5.7138191693       -2.5280847583
 H        -7.3512950923        4.3465521317       -1.8843234277
 H        -8.0435106468        2.8501035923       -2.4248963305
 H        -9.1496350256        0.2087026894        1.6588179164
 H       -10.3841541763        1.2439841528        1.2362011723
 H        -9.5706821484        1.7800402706        4.1018393013
 H        -9.5969905895        0.0058698000        3.7915059110
 H       -14.3634927198        3.5897719869        4.1522544615
 H       -13.7265555510        3.4717959468        2.4943607946
 H       -13.0445663806        5.7233226817        4.4590119777
 H       -14.5273308781        5.6178931407        3.6598841199
 H       -11.9849382757       10.2511496424        2.3617859459
 H       -11.2397677068        8.7904539579        1.7252642218
 H       -11.5335757648        9.1194743953        4.5790821654
 H       -10.1874896829        9.8924961879        3.6391685479
 H        -5.9663506399        7.6465431770        4.3395839833
 H        -5.8086108751        6.0272941929        3.7038999577
 H        -6.3357438947        6.3927027238        5.4758958038
 H        -7.4241685065        8.4768947859        6.0526457487
 H        -9.1906433839        9.1065540670        5.9778027544
 H        -8.0025331109        9.4713737995        4.7242613331
 H        -9.3838055088        5.4611136971        5.6986445895
 H       -10.3553224165        6.7470756024        6.3071774611
 H        -8.7102354180        6.4862432283        6.8177854257
 H       -13.8463150599        7.4373105843       -0.3694056313
 H       -12.3130693607        7.4400471160        0.0557351057
 H       -13.2162999302        8.8784317358        0.3710260399
 H       -15.6252854868        7.9739050359        1.2725039400
 H       -15.5075289455        7.3833094194        2.9602438641
 H       -15.5601020128        6.2252195585        1.7105732142
 H       -14.2498314123        0.8912675561        4.0142310808
 H       -14.2431207153        1.8534967578        5.5413429985
 H       -13.6295890348        0.1925296101        5.5181781706
 H       -10.5474782816        2.1124362102        5.8197830129
 H       -11.4877433487        0.5542003250        6.1839861161
 H       -12.1288700470        2.1972801048        6.6539876944
 H        -8.2910150134        0.2348813794       -0.7126535122
 H        -8.7486382477        1.3589024108       -1.7774588027
 H        -9.7192628955        1.1325532915       -0.4422500930
 H        -6.1240080212        1.3092606127        0.1150922327
 H        -6.0750928056        2.8583142695        0.8275804394
 H        -6.2358316915        2.6419425167       -1.0177095910
 H        -7.8936516132        5.3636308947       -6.7172801326
 H        -9.5994855235        5.8410413624       -7.0046569620
 H        -8.9856398491        4.2869887000       -7.7029936168
 H       -11.2845905877        5.1091959903       -5.2624197992
 H       -11.2701831103        3.4140055767       -4.5945992684
 H       -11.1817016895        3.8070255564       -6.3536338279
 H        -8.7291969717       -1.8959069451       -8.9892138128
 H        -7.6224441257       -3.2714188642       -8.8424419177
 H        -7.0558512028       -1.6895403516       -9.6436753168
 H        -8.4450010346       -3.1665457780       -6.3977115640
 H        -9.3976042704       -1.7504482705       -6.8976538131
 H        -8.5007416761       -1.7818921206       -5.4515162684
 Na      -10.0243827061        4.6153860960        2.1897253771
