117

 C        -4.6191215909       -2.5343371442       -7.8344060595
 C        -5.6879929319       -2.1042204335       -6.8799400788
 O        -5.5057052080       -1.7825161826       -5.7270819254
 C        -7.2055303252       -2.1259895072       -7.3821101342
 C        -7.5739068223       -0.5625032232       -7.2970652028
 O        -7.4200628685        0.1252054523       -8.2756785281
 C        -8.4024673506       -0.0142547523       -6.1383010694
 C        -8.6418392227        1.4997710848       -6.4143011387
 C        -9.3254621263        2.2628788202       -5.3162956432
 O        -9.7540377548        1.7157584836       -4.3186528296
 C        -9.5434351986        3.8541853539       -5.4255476841
 C        -8.5075130262        4.5246197479       -4.3211987632
 O        -7.5116877296        5.0889535042       -4.7302752483
 C        -8.7647034228        4.7159868327       -2.8120710416
 C        -8.4557706219        3.4029319238       -1.9141629660
 C        -8.7403079832        3.5207347816       -0.3829035864
 O        -9.3880190361        4.3990529079        0.0671579521
 C        -7.9979605981        2.3643991499        0.4854989458
 C        -9.0058766346        1.9710329871        1.5812962003
 O        -9.3514793075        2.6788994935        2.5057293319
 C        -9.6467283783        0.5885849381        1.6266401870
 C       -10.3550654242        0.3313969289        2.9746672921
 C       -11.7653592782        0.9450600176        2.9276277184
 O       -12.4422559350        0.9658199389        1.8817389053
 C       -12.3937967196        1.7240540228        4.1682303316
 C       -12.2708293187        3.2509847516        3.8287928074
 O       -11.3013561594        3.8878028700        4.2790244644
 C       -13.4184130730        3.8663896435        3.0222489912
 C       -13.3702700578        5.4369079516        3.1743635594
 C       -12.8519184431        6.1846128114        1.8509013165
 O       -11.9386416592        5.6338365232        1.2891682921
 C       -13.3529725975        7.6634695438        1.5221220126
 C       -12.6243592712        8.5542507068        2.7090760352
 O       -13.0794204357        8.4934239994        3.8316916345
 C       -11.3141939834        9.4952834899        2.5542759883
 C       -10.4700111408        9.4271445192        3.8345795838
 C        -9.9929611527        7.9669837938        4.1431056848
 O       -10.4561100733        7.0668546187        3.4314220931
 C        -8.8380095999        7.6791956196        5.2106790223
 C        -7.6629768759        7.0360773081        4.3443456912
 O        -7.7711579194        6.1934606153        3.4721326221
 C        -6.2624281837        7.5973634472        4.5948417884
 C        -8.4225899969        9.0433514702        5.8139644886
 C        -9.4100989617        6.5868318412        6.1861217761
 C       -12.8052710630        8.0284183820        0.1219643663
 C       -14.8787571481        7.7547399816        1.7248880361
 C       -13.8235147924        1.2802204749        4.3513822772
 C       -11.5201004441        1.5741193075        5.4368858267
 C        -7.6817463157        1.1739885507       -0.4881844217
 C        -6.7096929209        2.9624055213        1.0407051716
 C        -9.2053291040        4.3434784644       -6.8089766318
 C       -11.0201927201        4.2142645032       -5.0367539452
 C        -7.3253920873       -2.6177141498       -8.8550802709
 C        -8.0542990722       -2.8543866248       -6.3223951126
 H        -4.7975055867       -2.0916634444       -8.7601907503
 H        -4.5979949953       -3.6064963883       -7.9555753302
 H        -3.7077969872       -2.3045195978       -7.4295817178
 H        -7.8218433291       -0.0545835424       -5.1864489605
 H        -9.3203624716       -0.5997771240       -6.0175421840
 H        -9.2620113251        1.7079690945       -7.2496411875
 H        -7.6293545727        1.9259191249       -6.5665528097
 H        -9.7871907091        5.0360334369       -2.6295131847
 H        -8.1956241957        5.5250824280       -2.4186093043
 H        -7.3848434677        3.2372430152       -1.8713032951
 H        -8.8912543905        2.4848501123       -2.3098314201
 H        -8.9413367629       -0.2203286241        1.5077953051
 H       -10.4635983343        0.6239522456        0.9006915106
 H        -9.7838651275        0.5360133571        3.8477282266
 H       -10.4781665602       -0.7761082263        2.9661559564
 H       -14.3715801082        3.5606824515        3.4420964790
 H       -13.3763256036        3.5059057847        2.0011762419
 H       -12.7174730570        5.6766920710        4.0001444110
 H       -14.3473568933        5.7504381062        3.5012072773
 H       -11.5605389787       10.5311291337        2.4149180865
 H       -10.6658141690        9.2990091781        1.6872346521
 H       -11.0432537006        9.7908794634        4.6813689840
 H        -9.6353142730       10.0914446155        3.8436636713
 H        -6.3033314595        8.6667865959        4.5693033265
 H        -5.5060430649        7.2127935674        3.9805064823
 H        -5.8561321562        7.3476801711        5.5628102305
 H        -7.5887171871        8.8795905319        6.5616889812
 H        -9.1752406683        9.6192306889        6.3973201526
 H        -7.9727125636        9.7411778425        5.0951733659
 H        -9.6935244411        5.6311927136        5.6960705981
 H       -10.2112548593        6.8674318511        6.8366852072
 H        -8.6557452419        6.2787319125        6.9345746171
 H       -13.5280000964        7.7327019917       -0.6607758679
 H       -11.9112965779        7.4784920162       -0.1367010362
 H       -12.4880725117        9.0441974324       -0.0894463030
 H       -15.2839701467        8.7401865583        1.4263660426
 H       -15.0954673834        7.7368561337        2.7931775928
 H       -15.2636410265        6.9661324244        1.1889138377
 H       -14.4678588937        1.5511775466        3.5075080891
 H       -14.2417052950        1.7476673639        5.2416314013
 H       -13.9003570819        0.2060751865        4.5423983203
 H       -10.5461646366        2.1068308118        5.4241789792
 H       -11.3495648631        0.5256408390        5.6217662192
 H       -12.1384820146        1.9727868344        6.3316500110
 H        -7.1490687613        0.4201776987        0.1448398259
 H        -7.0090064808        1.4373655745       -1.3308437943
 H        -8.6246199777        0.7398489968       -0.8330836095
 H        -6.2652612721        2.2531315209        1.7540131199
 H        -7.0311090643        3.8486118203        1.5083290685
 H        -5.9161506813        3.2793556521        0.3470301444
 H        -8.1987403529        4.0900431234       -7.3140917576
 H        -9.1665096551        5.4599466770       -6.7623151762
 H        -9.9720273839        3.9734237805       -7.4984890409
 H       -11.2766272169        5.2650333836       -5.3371520682
 H       -11.2146578846        4.1544487161       -3.9964679358
 H       -11.8189502067        3.6001514281       -5.5238385895
 H        -8.3778678008       -2.6918231068       -9.0638052749
 H        -6.9271761520       -3.6396004085       -8.9670525630
 H        -6.8427292696       -1.9524008424       -9.5792768410
 H        -8.0037040233       -3.9411886877       -6.4410238471
 H        -9.1055872296       -2.7261704120       -6.5155195364
 H        -7.8461933549       -2.5741147183       -5.3011588122
 Na       -9.7243178888        5.0465287689        2.5211362052
