117

 C        -4.7636664203       -2.4164259947       -7.9581693672
 C        -5.8431604108       -2.3372080122       -6.9052681282
 O        -5.6362029360       -2.4634921102       -5.7120567426
 C        -7.2578959812       -1.9027063883       -7.3917333325
 C        -7.1671264427       -0.2798035619       -7.4986010234
 O        -6.4628647997        0.2615234870       -8.2991658854
 C        -7.8933084526        0.4997498082       -6.4679382954
 C        -8.0318523343        2.0734041807       -6.6444530781
 C        -8.8446130211        2.6807975046       -5.4501220870
 O        -9.1124188634        2.0116218210       -4.4511208710
 C        -9.3595135926        4.2030116301       -5.4398650302
 C        -8.6444994318        4.9965143217       -4.3266265161
 O        -7.6094727549        5.5141628547       -4.6087168803
 C        -9.1386009685        4.8537672290       -2.7922388062
 C        -8.3877653537        3.7156319013       -2.0823897066
 C        -8.7011840210        3.5366784360       -0.6167543114
 O        -9.2625303908        4.3414511589        0.0911616188
 C        -8.0281660339        2.2013927561        0.0124828017
 C        -8.6109642355        2.0606170636        1.4715333458
 O        -8.2828247518        2.9072268900        2.2814095002
 C        -9.6743760943        1.0178218085        1.8264929659
 C       -10.0673790545        1.0955588201        3.2644798223
 C       -11.6190313656        1.0103081788        3.3863005471
 O       -12.3511867810        0.5117582570        2.5213045459
 C       -12.3905742297        1.7208342375        4.6268549806
 C       -12.2814958965        3.1599302138        4.0322668903
 O       -11.1453428055        3.6266874334        4.0562427831
 C       -13.4663103934        3.7532492055        3.2452184529
 C       -13.4517665904        5.2812340497        3.3300491182
 C       -12.9679493715        5.9743533660        2.1127584387
 O       -12.2112271760        5.4212677468        1.3317125828
 C       -13.5135636015        7.4721647850        1.7243347055
 C       -12.8509342084        8.4822393300        2.8725305680
 O       -13.4904859737        8.5431407456        3.8911038947
 C       -11.5924757357        9.3304872141        2.6205690915
 C       -10.6341407742        9.2617712404        3.7865628683
 C       -10.2153945804        7.8416193071        4.1284479829
 O       -10.7789523626        6.9238809286        3.6171666218
 C        -8.9486911865        7.5019260449        5.0708222825
 C        -7.8871345165        6.6750888196        4.1515246592
 O        -8.2556739412        5.7839515706        3.4091676474
 C        -6.3806301178        7.0059187842        4.3101274675
 C        -8.2390979628        8.8028131961        5.5003962118
 C        -9.4789610306        6.6614914799        6.2987027755
 C       -13.0511428745        7.8219205930        0.3490394931
 C       -15.0338969779        7.6045323264        1.9131521582
 C       -13.8119693408        1.0625046501        4.8598348331
 C       -11.6158449964        1.4911043779        5.9767066404
 C        -8.1766087815        0.9560706070       -0.8112417740
 C        -6.5456073375        2.4356480988        0.2799847348
 C        -9.1469640878        4.9960390187       -6.8177396380
 C       -10.8810068244        4.0799154536       -5.2193152480
 C        -7.6698378835       -2.4581833596       -8.7912518540
 C        -8.3940730288       -2.4056833751       -6.4039537882
 H        -4.8502314951       -1.5993993698       -8.6504255362
 H        -4.9852764058       -3.2720164029       -8.5238110689
 H        -3.7974205906       -2.4498078806       -7.4871476059
 H        -7.5756748740        0.2237964023       -5.4798266841
 H        -8.9198167391        0.1400663397       -6.5487360746
 H        -8.6283340668        2.3250669909       -7.5481132811
 H        -7.0683689351        2.4905896219       -6.7526710153
 H       -10.1391677214        4.6011794818       -2.8543556922
 H        -8.9998404222        5.7986394203       -2.2652439212
 H        -7.2848527943        3.9006885507       -2.2368851184
 H        -8.6925436031        2.7455931598       -2.5356713346
 H        -9.4115952190       -0.0477858501        1.5458657780
 H       -10.5905523639        1.2989250002        1.2287969507
 H        -9.6172467105        1.9648839772        3.7597194592
 H        -9.6714399994        0.2511170525        3.7514613724
 H       -14.4193876369        3.4121729231        3.6803886570
 H       -13.3576604684        3.5425375953        2.1597080647
 H       -12.8603807324        5.5931008184        4.1273198777
 H       -14.4195709190        5.6954279643        3.6006156358
 H       -11.9412001131       10.3701739203        2.5183901527
 H       -11.0789493598        9.0304633373        1.6919133081
 H       -11.2600537798        9.6884973745        4.6172528062
 H        -9.7080543314        9.8851713298        3.5484041907
 H        -6.1720977505        7.9495214273        3.8366860485
 H        -5.6675927503        6.2712599023        3.9391855256
 H        -6.1494279812        7.1784150782        5.3227206284
 H        -7.5716720146        8.5788357577        6.3609298537
 H        -8.9397147711        9.5478974714        5.8645376167
 H        -7.6750851418        9.2448178670        4.6576439489
 H       -10.1410660399        5.8521503369        5.9782786176
 H        -9.9378001982        7.2840358743        7.1135562468
 H        -8.7270867856        6.0119330576        6.7299711572
 H       -13.7440141988        7.8880383639       -0.4782535868
 H       -12.2846503011        7.1077932316       -0.0188612832
 H       -12.5862851528        8.7748328922        0.2107955713
 H       -15.3795283129        8.6085882142        1.7173564304
 H       -15.3050053472        7.2292856417        2.8859402614
 H       -15.5266812171        6.9803209256        1.1456015025
 H       -14.4124952497        1.1241229603        3.9635911913
 H       -14.3671291250        1.5948200114        5.6369250517
 H       -13.7012888965        0.0000869764        5.0408152810
 H       -10.6432988500        1.9929507425        5.8567777354
 H       -11.5641598662        0.3784659423        6.1392196698
 H       -12.1347429505        1.9032260016        6.8096219940
 H        -7.9127966821        0.0056133575       -0.2218662863
 H        -7.5669266208        0.9463833552       -1.7203534059
 H        -9.2610374684        0.8058740793       -1.0837491893
 H        -6.2180076397        1.7069623783        1.0002889110
 H        -6.3271577756        3.4812083053        0.6510631059
 H        -5.9819348753        2.2470374434       -0.6158521100
 H        -8.0864872505        4.9127661735       -7.0675707564
 H        -9.4125788826        6.0490002847       -6.7142659080
 H        -9.8251933836        4.6544367581       -7.6581453406
 H       -11.2519465237        5.0487631110       -5.1245946647
 H       -11.1498006455        3.6031385253       -4.2474060573
 H       -11.4124384275        3.4282861942       -5.9000170347
 H        -8.6837287754       -2.1363345935       -9.0606758840
 H        -7.5917246844       -3.5193210364       -8.7461634391
 H        -7.0307741343       -2.0031884998       -9.5394064633
 H        -8.4996022100       -3.4943257727       -6.4301679175
 H        -9.3556850105       -1.8947460544       -6.5729268337
 H        -8.2180353243       -2.2172160903       -5.3447714939
 Na      -10.0386785892        4.9253174044        2.3868520138
