117

 C        -4.7083632881       -2.5402766624       -7.9474518433
 C        -5.8042468291       -2.2212211883       -6.9113315886
 O        -5.5756842520       -2.2276890915       -5.7120185163
 C        -7.2883129312       -1.9842968970       -7.3596875745
 C        -7.3376993760       -0.3917390221       -7.4186114974
 O        -6.7011909243        0.2347915481       -8.2668300892
 C        -8.0887162588        0.3693919841       -6.3384009826
 C        -8.3251683666        1.8166658114       -6.6947655553
 C        -8.9723791570        2.4955482746       -5.4165579864
 O        -9.1618916884        1.8739756932       -4.3967425876
 C        -9.3983817098        4.0521306592       -5.4296660201
 C        -8.6157295372        4.8586882292       -4.2504702389
 O        -7.6265631119        5.4570680161       -4.6000933843
 C        -9.0168019466        4.8505496888       -2.7281426463
 C        -8.4269339932        3.5011205079       -2.1431311842
 C        -8.5834833424        3.4958113305       -0.6029151017
 O        -9.2313881174        4.3394411097       -0.0220168878
 C        -7.9273287359        2.2553007157        0.0409397240
 C        -8.7284008601        2.0330169408        1.4065778926
 O        -8.7558128806        2.9192429937        2.2206416788
 C        -9.5982411872        0.8056123542        1.7246079653
 C       -10.2685811805        0.9049220588        3.1980019513
 C       -11.8140870020        0.9659739856        3.2018864025
 O       -12.5161428314        0.5116898301        2.3287098699
 C       -12.3657369613        1.7004411285        4.5341168287
 C       -12.2901113897        3.2122116875        4.0567200459
 O       -11.2349864531        3.7911249557        4.2944105823
 C       -13.4522681509        3.8286090695        3.1982808036
 C       -13.4363935205        5.3869099110        3.3300539857
 C       -12.9696342713        6.1147571633        2.0356565967
 O       -12.2058384087        5.5454974307        1.2830552594
 C       -13.4052071886        7.5337104502        1.7517174398
 C       -12.7692599409        8.3369218695        2.8440437719
 O       -13.2534862519        8.3314162806        3.9830649154
 C       -11.4985515480        9.2777587966        2.4827334272
 C       -10.5010944832        9.3128583506        3.7238768498
 C       -10.0703970431        7.9127282700        4.1650690351
 O       -10.7453896130        6.9469957589        3.7040836265
 C        -8.9415212871        7.6694360656        5.1411141448
 C        -7.8284857061        6.8415036558        4.2184532387
 O        -8.2662070754        5.9343673439        3.5412545246
 C        -6.3721671530        7.1929930054        4.3568588783
 C        -8.3000463279        9.0194431796        5.7506633084
 C        -9.3614675010        6.6790245351        6.2679940903
 C       -12.9132118138        7.9614141461        0.3470084961
 C       -15.0183579313        7.6531113556        1.7154317347
 C       -13.9003025652        1.2602072833        4.6984736067
 C       -11.5237764534        1.5582741387        5.8312792747
 C        -7.9408401700        1.0273985997       -0.8453332687
 C        -6.4377686437        2.6856716416        0.3333418893
 C        -9.1272399270        4.7173529339       -6.7970300390
 C       -10.9066089222        4.2039783535       -5.0886441821
 C        -7.5831030704       -2.4724931695       -8.8316815711
 C        -8.2721213917       -2.5650139126       -6.2952898729
 H        -4.5881764537       -1.7026068194       -8.6184215705
 H        -4.9792181742       -3.4058810294       -8.6089417492
 H        -3.8540923605       -2.7654931399       -7.3612371794
 H        -7.4686691638        0.2129977587       -5.4026453138
 H        -9.1165964468        0.0402278914       -6.0869167645
 H        -9.0652606766        1.8116665143       -7.4832684581
 H        -7.3957141172        2.3902159813       -7.0238287091
 H       -10.1522516576        4.9371265946       -2.5921119210
 H        -8.5778965091        5.7024270252       -2.2100020350
 H        -7.3824210417        3.5481206671       -2.3445284492
 H        -8.8533843516        2.6371604486       -2.6042938750
 H        -8.9353374987       -0.0198697209        1.6218402526
 H       -10.4479164213        0.7682264290        1.0723290192
 H        -9.8601265578        1.7468796634        3.7495287434
 H        -9.9381954924        0.0180660666        3.8366711056
 H       -14.3644331199        3.5120697674        3.6662287630
 H       -13.4062849708        3.5778745291        2.1574724494
 H       -12.7714547786        5.6347664409        4.2122240041
 H       -14.4052648531        5.7589279473        3.6582417803
 H       -11.8425348649       10.2828390777        2.2521581193
 H       -10.9293603398        8.9531730871        1.6188832743
 H       -11.0536612290        9.7410914404        4.5508239547
 H        -9.6628149292        9.9262356857        3.5382216995
 H        -6.0564962135        8.0640318754        3.7561394244
 H        -5.7730996728        6.3097553470        4.1765294592
 H        -6.0441126228        7.3984154380        5.4079109583
 H        -7.5379739661        8.8144256527        6.5019005961
 H        -9.0164570594        9.5852902158        6.3987098878
 H        -8.0563132921        9.6726040624        4.9247357728
 H        -9.9967701821        5.9035345592        5.8705172258
 H        -9.8503077753        7.1843716053        7.0437435791
 H        -8.6103870512        6.0589345066        6.7398706786
 H       -13.2533064217        7.3111467506       -0.4511659923
 H       -11.8780973214        8.1314969989        0.1919978423
 H       -13.3620989632        8.8730090712       -0.0478382555
 H       -15.2231176958        8.7074700577        1.4383724074
 H       -15.5247823981        7.4901768275        2.6827943244
 H       -15.3733372324        7.1036051516        0.8779348946
 H       -14.4859318900        1.2876118705        3.7717788793
 H       -14.4030846983        1.9762214470        5.3302049268
 H       -13.9658100454        0.2406469750        5.0757518390
 H       -10.6906063075        2.2384001122        5.6540563156
 H       -11.2932476343        0.5462183671        6.0482431264
 H       -12.1352473039        1.9112114140        6.7420584250
 H        -7.3984738735        0.2302370150       -0.4207835198
 H        -7.4340625912        1.3194662048       -1.7617893856
 H        -8.9028090453        0.6922039590       -1.1119535264
 H        -5.8478974402        1.8484244885        0.7578653860
 H        -6.3801991206        3.6079946127        0.8175526340
 H        -5.9533567398        2.8816846944       -0.6595875225
 H        -8.0380363496        4.5638804038       -7.0545636756
 H        -9.3483069877        5.8160912756       -6.8046547893
 H        -9.7768472460        4.3080227255       -7.5591161665
 H       -11.1529668521        5.0618419722       -4.4074889415
 H       -11.1813439403        3.3478884014       -4.5255385565
 H       -11.5869931288        4.0101326244       -5.9110402453
 H        -8.4606569401       -2.0269466896       -9.2735050287
 H        -7.5832435747       -3.5873139711       -8.9082511740
 H        -6.7472735940       -2.0394649822       -9.3968390982
 H        -8.1307169494       -3.6381897920       -6.1430811773
 H        -9.3333934741       -2.3996275775       -6.3759691216
 H        -7.9728211334       -2.1202819139       -5.3433179165
 Na       -9.9928610527        4.7834062631        2.3728058681
