117

 C        -4.6758688535       -1.3873402790       -7.5328622255
 C        -5.7969171771       -1.6873262164       -6.5555222830
 O        -5.6694134979       -1.3502866579       -5.3916231640
 C        -7.2040252485       -2.2914878683       -7.0694560510
 C        -8.3482558343       -1.1063958613       -7.0660714218
 O        -8.8222595038       -0.8545229512       -8.1446947118
 C        -8.6732409267       -0.2425015308       -5.7778392951
 C        -9.2238579672        1.1026332921       -6.1493594073
 C       -10.0223225146        1.7801922877       -4.9477953688
 O       -10.6012352571        1.1071027471       -4.1061206874
 C       -10.0532562699        3.3706545595       -4.7216763293
 C        -8.9719160931        3.6556784676       -3.6325519515
 O        -7.7943042772        3.8479648224       -3.9082559156
 C        -9.2346503219        3.4771461324       -2.1094519534
 C        -7.8873145025        3.2395433382       -1.4215098994
 C        -8.0581886856        3.4822482660        0.0738379811
 O        -8.4468248307        4.6115610740        0.4081047048
 C        -7.4809046562        2.4557324371        1.1312904893
 C        -8.8172296551        1.9525019914        1.8945109746
 O        -9.2516501587        2.5115818778        2.8865390185
 C        -9.5504018319        0.7444522905        1.2660144739
 C       -10.8899006277        0.3467273006        1.9419753757
 C       -11.8888415344        1.5210553693        2.0196082924
 O       -12.3390224766        2.2379807421        1.1241230268
 C       -12.3881711491        2.0716871857        3.4488017368
 C       -12.3146385778        3.5774231878        3.3110829703
 O       -11.2564763937        4.1405938174        3.6678538584
 C       -13.4443174579        4.2601233482        2.5180674046
 C       -13.3769144179        5.7900435584        2.6172462244
 C       -12.5525898975        6.5246862750        1.5172088881
 O       -11.6293934605        5.9775022440        0.9769684783
 C       -12.8175303802        8.0762450535        1.2283378800
 C       -12.4528953142        8.8520531347        2.5992010110
 O       -12.9906231798        8.5246357050        3.6272114968
 C       -11.2929709501        9.8737059477        2.5752886170
 C       -10.3344290095        9.5949957311        3.7306167770
 C        -9.7380171077        8.1718805103        3.6414038926
 O       -10.0609332604        7.4383496545        2.7097979202
 C        -8.8555805274        7.6527039047        4.7875715207
 C        -7.6303014025        6.8560137337        4.1328966360
 O        -7.7950292473        5.6988254743        3.8516394251
 C        -6.3039889293        7.5329535334        4.0712014810
 C        -8.3872808773        8.7466949872        5.7462814949
 C        -9.7138690756        6.5526792794        5.4908281013
 C       -11.9463258602        8.5263880449       -0.0136048294
 C       -14.3533266987        8.3146544886        1.0551853914
 C       -13.8837257077        1.6542145296        3.6877927132
 C       -11.4811503826        1.5924467084        4.5343129473
 C        -6.7845375734        1.2553289276        0.4701269612
 C        -6.5585751221        3.0935185720        2.1902540175
 C        -9.7205978313        4.0788158560       -5.9890650565
 C       -11.4747323992        3.8170841808       -4.1789823266
 C        -7.0453695342       -2.7092365762       -8.4973530691
 C        -7.5523333689       -3.4329318081       -6.0148422340
 H        -5.0965773509       -0.9186410412       -8.3782379085
 H        -4.2816933155       -2.2880230106       -7.8920446583
 H        -3.8842459482       -0.7599339465       -7.1497889634
 H        -7.8581638619       -0.2232462598       -5.0295872829
 H        -9.5553940858       -0.7303836444       -5.3234732527
 H        -9.9851331973        1.0669911512       -6.9255594897
 H        -8.4561533401        1.8867870234       -6.5020455045
 H        -9.9979658920        2.6764250598       -1.9024401830
 H        -9.5928452637        4.4698552275       -1.7105064747
 H        -7.1300076667        3.8906006351       -1.7423649764
 H        -7.5289890815        2.2473419743       -1.6695368752
 H        -8.9537091024       -0.1419486428        1.2204559487
 H        -9.7112442470        0.9231252774        0.2080323431
 H       -10.7441017007       -0.0108730093        2.9620383695
 H       -11.3241884355       -0.4917323791        1.2997906394
 H       -14.3747070088        3.9044958874        2.9075567883
 H       -13.5149919461        3.8555443526        1.5393057153
 H       -12.7559743983        6.0556573849        3.5375677975
 H       -14.4038749398        6.1074589753        2.7065717959
 H       -11.8205883411       10.7302903837        2.9330354569
 H       -10.7817396920       10.0170647169        1.6273039174
 H       -10.8538029696        9.6384650302        4.6983507945
 H        -9.5403339043       10.3008617826        3.7625829614
 H        -6.3078114348        8.4906549591        3.5745109754
 H        -5.5845839583        6.9607149473        3.5143925343
 H        -5.9825547786        7.7764906141        5.0681792139
 H        -7.6846410841        8.3405106364        6.5009875966
 H        -9.2120296337        8.8792050672        6.4580990800
 H        -8.1226267836        9.6695532719        5.2223926483
 H       -10.1497397352        5.8591304945        4.7528532127
 H       -10.5570249669        7.0155461323        5.9982316619
 H        -9.1999285724        5.9348199636        6.2372305975
 H       -12.1172223750        7.7967261191       -0.8378627974
 H       -10.9162194291        8.5539767466        0.3156043176
 H       -12.2731250758        9.4680643227       -0.4396184812
 H       -14.4609726348        9.2531669191        0.4495818009
 H       -14.7814058991        8.4960426425        2.0503999897
 H       -14.8008643449        7.5332622415        0.5642326670
 H       -14.5717107269        1.8542023192        2.8549382448
 H       -14.3413716217        2.1480944914        4.5386263654
 H       -13.8788163697        0.5694779997        3.8539512070
 H       -10.4335974436        1.8471707838        4.3184813408
 H       -11.5622898384        0.5586829579        4.8096110747
 H       -11.6412746393        2.0032256032        5.5797868779
 H        -6.3733042744        0.5159794143        1.2206991862
 H        -5.9760800070        1.6919123057       -0.1384792863
 H        -7.4551574022        0.6816535395       -0.1838864049
 H        -6.5147842819        2.5862196325        3.1413278088
 H        -7.0456518676        4.0528032334        2.5051340671
 H        -5.5332625880        3.3144764071        1.9200942766
 H        -8.5899384961        4.0695346339       -6.1522670018
 H       -10.0191378676        5.1568600808       -6.1123400357
 H       -10.1345116045        3.5214186871       -6.8839565361
 H       -11.4007107932        4.6801943910       -3.5313381002
 H       -11.8838615327        3.0145954834       -3.6114710392
 H       -12.2320900805        3.7680041238       -4.9474258541
 H        -7.9097860163       -3.2025835351       -8.8940693513
 H        -6.3008210683       -3.4875119595       -8.6327267419
 H        -6.8778644973       -1.8862814520       -9.1778435999
 H        -6.8473227468       -4.2774853663       -6.1469834052
 H        -8.5347316364       -3.8155838060       -6.2689967996
 H        -7.5900786696       -3.0449947643       -4.9974273429
 Na       -9.7173390698        4.9862111183        2.2630612296
