117

 C        -4.5450868325       -1.7736019107       -7.4058696872
 C        -5.7966043689       -1.7204983858       -6.6419611482
 O        -5.7875572559       -1.2037123416       -5.5256371648
 C        -7.1686581811       -2.1517625894       -7.1696178616
 C        -8.2743494897       -0.8764421356       -7.2352914675
 O        -8.9226416148       -0.5746627507       -8.2098740611
 C        -8.4519378102       -0.1722541646       -5.8517330813
 C        -8.6922600821        1.2909176784       -6.0684678337
 C        -9.6307278327        1.8131258678       -5.0195234788
 O       -10.1876347874        1.1039792703       -4.2023563113
 C        -9.8724009583        3.4823512873       -4.8836900064
 C        -8.8750115646        3.7858618098       -3.7282018036
 O        -7.6846054771        3.7645298385       -3.9767582819
 C        -9.3392243527        4.0391075699       -2.2079857501
 C        -8.5683070897        2.9647174845       -1.3727462113
 C        -8.2764575208        3.4352181533        0.0226839330
 O        -8.7208732809        4.5295109422        0.3461313233
 C        -7.6033395794        2.4258147759        1.0737366688
 C        -8.8249476864        1.8614960240        1.7989665443
 O        -9.4779480992        2.5994021584        2.5689083117
 C        -9.5507835192        0.5991315612        1.2137599884
 C       -10.8191925535        0.3302979283        2.0128356453
 C       -11.8594583226        1.3675045204        2.1477407891
 O       -12.4442664027        1.8260652181        1.2123975283
 C       -12.3157944852        1.9107103711        3.5868021018
 C       -12.2265104616        3.4764019506        3.4875099463
 O       -11.4021058799        4.0869338542        4.1726093737
 C       -13.3236207179        4.2264108111        2.8048903650
 C       -13.2456806735        5.7988138972        2.8426899100
 C       -12.6410396550        6.4596356432        1.5537719985
 O       -11.6881959750        5.9336279385        1.0042040783
 C       -13.0100994131        7.9975109651        1.3356337328
 C       -12.5486560468        8.8073143364        2.6529464333
 O       -13.1401895448        8.6356002625        3.6864798347
 C       -11.2434196733        9.6816835447        2.5138128396
 C       -10.3697573449        9.5466453261        3.7225634830
 C        -9.7616134959        8.0982494480        3.6514891694
 O        -9.8758483091        7.4199407873        2.6522651233
 C        -8.8133731022        7.5380276826        4.8326140506
 C        -7.6086585475        6.9576239685        4.1528034061
 O        -7.7420401485        5.9846311230        3.4348762253
 C        -6.2621742105        7.6280112083        4.2859654256
 C        -8.5536917989        8.5362133656        5.9229811120
 C        -9.6409492904        6.3844954169        5.5221327348
 C       -12.3209671242        8.5746234001       -0.0209217974
 C       -14.5354953062        8.2465228373        1.1553820697
 C       -13.7508455332        1.3585373999        3.8218053184
 C       -11.2803006866        1.5885636468        4.6796757586
 C        -6.7604480884        1.3924745356        0.3419740679
 C        -6.6986247228        3.1812083344        1.9861845568
 C        -9.5291891369        4.2223396866       -6.1316357782
 C       -11.3454167523        3.7001152503       -4.6475336566
 C        -7.0789142889       -2.7233525969       -8.5834031403
 C        -7.8322061779       -3.1413107845       -6.1176178966
 H        -4.6340947399       -1.2986445783       -8.4351854392
 H        -4.0793143362       -2.7662263342       -7.4575979039
 H        -3.8594426263       -0.9767077584       -6.9076022949
 H        -7.4792063604       -0.2588015200       -5.3814114227
 H        -9.2290896545       -0.5669621207       -5.2077594814
 H        -9.1774519350        1.5428172851       -7.0138730617
 H        -7.8256860693        1.9796805324       -5.9562739345
 H       -10.3850851549        4.0319307823       -2.1839293342
 H        -8.9545509255        5.0264474401       -1.9627836923
 H        -7.6277409487        2.6538772528       -1.9370295089
 H        -9.0783933516        1.9540758549       -1.3087130826
 H        -8.9866964302       -0.3881023788        1.3647250469
 H        -9.6963519163        0.7484022732        0.1078891603
 H       -10.4070440203        0.1036507773        2.9777453952
 H       -11.2740420542       -0.5971917376        1.6938687542
 H       -14.2717318431        3.8468441482        3.2845777890
 H       -13.4935816043        3.8133001443        1.7674821339
 H       -12.6202697804        6.0979628414        3.6811480546
 H       -14.2883137166        6.1520121258        2.9064766433
 H       -11.5365096567       10.7105536298        2.4733437824
 H       -10.6511262808        9.3351889392        1.6006787401
 H       -10.9181329083        9.7007708792        4.7104499436
 H        -9.5125773585       10.2905444998        3.8769196330
 H        -6.3303662071        8.7337979299        4.4074330577
 H        -5.7088106031        7.5757758335        3.3124617900
 H        -5.6686259268        7.3774743613        5.1591406854
 H        -7.9818470458        8.0004183043        6.7056674770
 H        -9.4341930643        8.9144050239        6.4072695515
 H        -7.8777961726        9.3519924827        5.6374792088
 H       -10.0481013323        5.6699467377        4.8146768889
 H       -10.5367327313        6.6699442325        6.0796466257
 H        -8.9430968429        5.8550065937        6.1562365005
 H       -12.9971858847        8.4837474582       -0.9134443527
 H       -11.3835943997        8.0172712117       -0.2212302387
 H       -12.1158599112        9.6289547749       -0.0030973411
 H       -14.6142196551        9.3255650805        0.8598704097
 H       -15.0923771491        7.8772821752        2.0278465986
 H       -14.8636649162        7.6594376279        0.3063546112
 H       -14.4979152536        1.7086810211        3.1147503198
 H       -14.0526278723        1.6797296508        4.8163754177
 H       -13.8461393862        0.2753150256        3.7522443607
 H       -10.3083074127        1.9877962820        4.4939355690
 H       -11.1242710519        0.5287558676        4.8990891788
 H       -11.5620037769        1.9979908914        5.6188392356
 H        -6.2027782931        0.8749027066        1.1234377408
 H        -6.0855592337        1.9127511437       -0.2393369010
 H        -7.2849175203        0.6399709219       -0.1794683810
 H        -6.4578466302        2.5893651654        2.8443718277
 H        -7.2740276867        3.9751839786        2.5553004880
 H        -5.7815009042        3.5421623487        1.5533045025
 H        -8.5576292842        4.1029427327       -6.4657543603
 H        -9.7462411653        5.2159219066       -5.9749534671
 H       -10.1795979552        3.9950660213       -6.9610091937
 H       -11.4324893955        4.7363351021       -4.3385469926
 H       -11.8167966431        3.1307215094       -3.7844854531
 H       -11.9782399706        3.5946657439       -5.5770151417
 H        -8.0554492790       -3.0576312154       -9.0137960926
 H        -6.4297490489       -3.5846062626       -8.6590589571
 H        -6.7100564101       -2.0059742280       -9.3247416460
 H        -7.1985550547       -4.0294275019       -5.9349833698
 H        -8.8373386594       -3.3694822985       -6.4060347985
 H        -7.8894516977       -2.6077218753       -5.1721567430
 Na       -9.6483307056        5.1640887322        2.5981584791
