117

 C        -4.6516868155       -2.0138710464       -7.4716269245
 C        -5.8313060986       -1.7202306212       -6.5889770311
 O        -5.7213740999       -1.1161835179       -5.5406600550
 C        -7.1742777529       -2.0579364564       -7.1508391918
 C        -8.1566645364       -0.7577593248       -7.2616053174
 O        -8.5934501692       -0.3747123776       -8.3362659146
 C        -8.4072443430       -0.0547579402       -5.9041474254
 C        -8.4721326696        1.4541661503       -6.0807762906
 C        -9.5709579241        2.0002403192       -5.1012509269
 O        -9.9847962779        1.2635730003       -4.2307545204
 C        -9.8061758560        3.4652712613       -5.0422291802
 C        -8.7442132806        3.8874103170       -3.8847331795
 O        -7.5715026440        3.8767160885       -4.1517550215
 C        -9.2503151113        4.1712396634       -2.4571007655
 C        -8.7578314352        3.0712814121       -1.5698605548
 C        -8.4746886097        3.4872015398       -0.1190875849
 O        -8.9329330488        4.4774471876        0.3713739038
 C        -7.7542461296        2.4209751859        0.8895767125
 C        -9.0372860334        1.9139629984        1.6896729992
 O        -9.6547110455        2.6930347196        2.3358761960
 C        -9.5540588947        0.5098248582        1.3055328421
 C       -10.7267615366        0.1422293581        2.2846655246
 C       -11.7581427000        1.2929929167        2.3618784303
 O       -12.2861318160        1.5559952787        1.2999781178
 C       -12.2121781232        1.9197084149        3.6986033105
 C       -12.2348970071        3.4890498420        3.6330824211
 O       -11.4836170870        4.2233240782        4.2519788467
 C       -13.2036529378        4.2450858901        2.7520419149
 C       -13.2987332103        5.7474645235        2.9999178515
 C       -12.6656689390        6.4397906392        1.8006299118
 O       -11.7108240008        5.9078230505        1.2346831552
 C       -13.0716564407        7.8988257327        1.3767793290
 C       -12.5373766634        8.7718769154        2.6470082121
 O       -13.1462015969        8.7618955792        3.7198110984
 C       -11.2933677618        9.6933140120        2.4762991506
 C       -10.4912107732        9.4927777947        3.8145346340
 C        -9.7915987775        8.0803133892        3.8085566119
 O        -9.9204911910        7.3329476069        2.8536296043
 C        -8.8229371220        7.5970630164        4.8795351632
 C        -7.5064274387        7.0955195326        4.1817271139
 O        -7.6127650967        6.2140300534        3.3301479015
 C        -6.1302061007        7.6810260313        4.5135820119
 C        -8.6143829720        8.6222883038        6.0138247156
 C        -9.4658976113        6.3840008931        5.5553484717
 C       -12.4576392728        8.1444698541        0.0001057008
 C       -14.5893731294        8.0090426204        1.4209681568
 C       -13.5932703157        1.3514197349        3.8538295962
 C       -11.4186306562        1.4545358038        4.8961213493
 C        -6.9671189825        1.3287108224        0.1762361519
 C        -6.8983551671        3.2171683745        1.8489014786
 C        -9.2906610700        4.2290444962       -6.3324457660
 C       -11.2688607844        3.6481008630       -4.6925179775
 C        -7.2364365357       -2.6909128084       -8.6007071029
 C        -7.8699837738       -3.1004790249       -6.2763153469
 H        -4.6492274146       -1.4102170255       -8.3376877480
 H        -4.6721235382       -3.0806263358       -7.7215668563
 H        -3.7691051387       -1.7716526764       -6.9815618807
 H        -7.6577243732       -0.3637067198       -5.1634149624
 H        -9.4069250812       -0.4729738686       -5.6371158598
 H        -8.7063923483        1.6427270558       -7.1726506551
 H        -7.5079019425        1.9257068890       -5.8554774305
 H       -10.3786812143        4.2641339447       -2.4774920843
 H        -8.8060037169        5.1648771556       -2.2258129284
 H        -7.9461311388        2.5297915608       -1.9713723625
 H        -9.4878210169        2.3008989783       -1.5779181143
 H        -8.7107186828       -0.1341400029        1.4081636249
 H        -9.8636250081        0.5459081121        0.2750316309
 H       -10.2559055418       -0.0642646172        3.2885549675
 H       -11.3119199162       -0.7721822090        2.0629984679
 H       -14.1625419081        3.7697671429        2.7100013563
 H       -12.8450949510        4.0567400521        1.7580788459
 H       -12.5833408220        5.8618204455        3.8789314797
 H       -14.3208429284        6.0947187121        3.1863131331
 H       -11.5545026850       10.7635864714        2.3340489465
 H       -10.7087641899        9.3397038011        1.6732363392
 H       -11.1127337083        9.5687227358        4.6798245320
 H        -9.7558777126       10.2156685239        4.0868966203
 H        -6.0519143618        8.7478838707        4.3530874350
 H        -5.3294675060        7.2685363711        3.9159426675
 H        -5.9429986511        7.6079361928        5.5984414598
 H        -7.7542948592        8.4387915835        6.6839664904
 H        -9.5797265445        8.7588322095        6.5787557372
 H        -8.3396821729        9.6349659408        5.6282046306
 H        -9.3926432456        5.4599242647        5.0107183195
 H       -10.5472499754        6.4445760488        5.5152754098
 H        -9.1098050864        6.2317011579        6.5549538294
 H       -12.7578036583        7.3559985419       -0.6784266420
 H       -11.3574047944        8.1261909446        0.0231239461
 H       -12.7944898012        9.1148976873       -0.4530682599
 H       -14.8637398780        8.8763640328        0.9274778702
 H       -14.7917768572        7.9677968095        2.4613245956
 H       -15.1199671884        7.1338394303        1.0023183334
 H       -14.1609403182        1.4011429228        2.9287520261
 H       -14.1688089204        1.7687209473        4.6855408108
 H       -13.5397132354        0.2775794985        4.0497819430
 H       -10.3099243221        1.5232170398        4.8588962615
 H       -11.5876211505        0.3784951023        5.1389252766
 H       -11.7043717356        2.0885553026        5.7589278271
 H        -6.6795552526        0.5902730515        0.8816646967
 H        -6.0422034970        1.7552614331       -0.2699546404
 H        -7.6240948641        0.8984492304       -0.5955303666
 H        -6.2464337749        2.5270432796        2.4183952348
 H        -7.3854921106        3.7094552658        2.6560145035
 H        -6.2394539525        3.8751191718        1.2766453099
 H        -8.2277901586        3.9848348203       -6.5800897512
 H        -9.5317800886        5.3345547701       -6.3030687672
 H        -9.8519493231        3.9714182927       -7.2388564336
 H       -11.6891482403        4.6860537833       -4.6519709410
 H       -11.5133173476        3.1874365526       -3.7370228907
 H       -11.8034777752        3.2060196941       -5.5338319779
 H        -8.2803822029       -2.6587918657       -8.8676974375
 H        -6.8560051670       -3.7068468608       -8.7616541404
 H        -6.7631877840       -2.1000758802       -9.3799356599
 H        -7.5637993698       -4.0907341631       -6.5010075384
 H        -8.9476214564       -2.9358802514       -6.3721766420
 H        -7.6181786555       -2.9631239767       -5.2275578676
 Na       -9.7951703057        4.9540265052        2.4635517985
