117

 C        -4.6296519709       -1.5269597705       -7.5326603993
 C        -5.8374331578       -1.6541605285       -6.5484277522
 O        -5.6973036043       -1.3426055426       -5.3925406978
 C        -7.1489029078       -2.2036102304       -7.1125130400
 C        -8.2765366895       -0.9958699850       -7.1239073119
 O        -8.8634322567       -0.8432690729       -8.1503964674
 C        -8.6075806619       -0.2484926224       -5.8330416344
 C        -9.0854703241        1.1871465004       -6.1028057241
 C        -9.8715864788        1.8784436085       -4.9041060661
 O       -10.4728160818        1.1518345410       -4.1508115164
 C        -9.9618859934        3.4296626238       -4.7522918741
 C        -8.9622009715        3.6683363800       -3.6785175632
 O        -7.8037445198        3.7996670864       -4.0209768803
 C        -9.3756153330        3.6325744823       -2.1172829744
 C        -8.1984824394        3.1399486507       -1.3096186824
 C        -8.0744369961        3.5419059586        0.1319277975
 O        -8.5194395193        4.6124132470        0.5064010290
 C        -7.5667694669        2.4754615048        1.0992764711
 C        -8.8723857611        1.8495197850        1.8618771050
 O        -9.2220990506        2.5637820249        2.7723853491
 C        -9.5710800167        0.6798094496        1.2551281391
 C       -10.9514261772        0.3620621003        1.8596931415
 C       -11.9037247290        1.4635240887        2.0852477128
 O       -12.3028506785        2.0537606746        1.0976339167
 C       -12.3533332651        1.9574070567        3.5843924230
 C       -12.2861403965        3.5743902620        3.3534113603
 O       -11.3299657610        4.2553099838        3.7143745714
 C       -13.4012816566        4.3353874946        2.6895549572
 C       -13.3587646859        5.8487634887        2.6482502001
 C       -12.5254137455        6.5188642998        1.5423462356
 O       -11.6437861172        6.0224772861        0.8930418513
 C       -12.8877632231        8.0602102276        1.2492515898
 C       -12.4146130462        8.8412195700        2.5234426942
 O       -13.0348470697        8.5375169913        3.5130234882
 C       -11.3257017131        9.9845534704        2.6688575534
 C       -10.2907477510        9.5781332253        3.7314796767
 C        -9.7326445532        8.1133207348        3.6042620117
 O       -10.0179763630        7.4551982885        2.6307069947
 C        -8.8670336357        7.5145546998        4.8443548220
 C        -7.5577574768        6.8175174154        4.2358441852
 O        -7.6622061597        5.7463580773        3.6712186015
 C        -6.2574295036        7.6216300354        4.1152960878
 C        -8.4591235537        8.6483108820        5.7796201643
 C        -9.7657219210        6.4890817435        5.5405219039
 C       -12.1362869786        8.5534693855        0.0284029953
 C       -14.4825666892        8.2669743978        1.0663431716
 C       -13.8453694274        1.5012606521        3.9098629891
 C       -11.4159275908        1.3537793711        4.6364065607
 C        -6.7263746005        1.3639108753        0.3963750000
 C        -6.6381461608        3.1690978549        2.0971556963
 C        -9.5767206712        4.1521568224       -6.0499868023
 C       -11.3906105271        3.7546905712       -4.2106032195
 C        -7.0456951199       -2.7833375663       -8.4991672624
 C        -7.6075153030       -3.3210066906       -6.1612888858
 H        -4.9516788398       -1.2579974744       -8.4927477467
 H        -4.2611879191       -2.5501995117       -7.6290065087
 H        -3.8734009404       -0.8632361341       -7.2916769633
 H        -7.6946635331       -0.1910552239       -5.2257112375
 H        -9.3936330193       -0.7842788078       -5.2645058885
 H        -9.7318725202        1.3649599196       -6.9531730531
 H        -8.2294424923        1.8202719263       -6.2394665805
 H       -10.2857591207        2.9685446967       -2.0274625995
 H        -9.6243514243        4.6495811214       -1.8263803949
 H        -7.2577873140        3.4031764661       -1.8146727744
 H        -8.1613650917        2.0687770010       -1.3866620527
 H        -9.0353636016       -0.2536401968        1.3209403906
 H        -9.5873897159        0.8756990816        0.1883072329
 H       -10.7923869127       -0.2351402482        2.7632390945
 H       -11.4342471872       -0.2970844252        1.1065585571
 H       -14.3260893482        4.0119375945        3.1321718975
 H       -13.5491477722        3.9391229976        1.7045629640
 H       -12.8948587013        6.2541992815        3.5578070871
 H       -14.3835298924        6.1054121506        2.5660982431
 H       -11.8434045126       10.9276138317        2.9908568177
 H       -10.7724164509       10.0637458876        1.7765315624
 H       -10.6105624609        9.6386440670        4.7446842344
 H        -9.4501252883       10.2323532606        3.7054179426
 H        -6.3771160990        8.6651949722        3.9625460385
 H        -5.7295431489        7.3032913439        3.2798268365
 H        -5.6766515808        7.5993579971        5.0293675436
 H        -7.8080788011        8.2578960410        6.5436676503
 H        -9.2787736132        8.9362833001        6.4354341636
 H        -8.0313094226        9.4697187108        5.2238038446
 H       -10.4192599579        5.8256672401        4.9259543457
 H       -10.4590758255        6.9816954211        6.2536715891
 H        -9.1233981204        5.8168884864        6.1621956723
 H       -12.6262135118        8.2205306861       -0.8635020635
 H       -11.1018978901        8.2639629730        0.0894977557
 H       -12.2434473022        9.6518474925       -0.0607428753
 H       -14.7255642880        9.2888983299        0.7876087347
 H       -14.9188073466        7.9972204073        2.0401340226
 H       -14.8292480069        7.5596373271        0.3134459752
 H       -14.5541816511        1.8150611135        3.1354294297
 H       -14.2433871240        1.8809857984        4.8452544664
 H       -13.8919710059        0.4179909414        3.9085662182
 H       -10.3584120625        1.5900307726        4.4714974413
 H       -11.5356439887        0.2967936200        4.7909078500
 H       -11.5986074753        1.6669629614        5.7111909846
 H        -6.3905991195        0.6192465717        1.1263325768
 H        -5.8485168795        1.8336184628       -0.1738582369
 H        -7.3638966803        0.7546060527       -0.2983467755
 H        -6.4767861918        2.7561312940        3.1040822608
 H        -6.9445232848        4.1327909736        2.3277064410
 H        -5.6496945582        3.2434307280        1.6139290415
 H        -8.4517248538        4.3416281028       -6.1146260501
 H       -10.0346782648        5.1897218960       -6.0442288111
 H        -9.8716725505        3.6976125330       -6.9803402836
 H       -11.3535519931        4.6874910127       -3.5986791138
 H       -11.7936126138        3.0095619346       -3.5994982536
 H       -12.0979541762        3.7314546322       -5.0020642678
 H        -7.9417616868       -3.3259054799       -8.7338405682
 H        -6.2822947966       -3.5684052823       -8.6252176226
 H        -6.9760390332       -2.0600301766       -9.3022903886
 H        -6.8240171242       -4.0796545155       -6.1495233920
 H        -8.4931428448       -3.7724909316       -6.6654999207
 H        -7.9107098910       -3.0040006955       -5.1387868006
 Na       -9.7259404406        5.0196177744        2.3594843069
