117

 C        -5.6345430425       -0.4357607792       -7.3980514468
 C        -6.1637165716       -1.1898505219       -6.1984458771
 O        -5.8472251978       -0.9597451428       -5.0633855457
 C        -7.3660208733       -2.2467088954       -6.5897241483
 C        -8.5752591390       -1.2720752604       -6.8182344477
 O        -8.7549063155       -0.7141879470       -7.8639537590
 C        -9.5435312482       -0.9067121819       -5.6727701799
 C        -9.7432317038        0.6070919562       -5.7173958115
 C       -10.1063148226        1.1797280687       -4.3366252282
 O       -10.3304998695        0.4117283166       -3.4004982215
 C       -10.2255183136        2.7298635297       -4.1016003220
 C        -8.7063490667        3.2384909917       -3.7650726913
 O        -8.0394139437        3.9752223259       -4.4990185919
 C        -8.0546264510        2.5126119013       -2.5349370216
 C        -7.3521464617        3.5310651164       -1.5932766968
 C        -7.9570350095        3.6410129687       -0.1974054930
 O        -8.5176586329        4.6534118126        0.1815953678
 C        -7.6683191951        2.3998453830        0.8357589809
 C        -8.9433238732        2.1223342769        1.6850884667
 O        -9.4566303852        3.1094362137        2.2106484836
 C        -9.5110607086        0.7181500482        1.8304988453
 C       -10.6725142433        0.6337404725        2.7489499060
 C       -11.6319818661        1.6043967366        2.1033553433
 O       -11.6745736913        1.8439991268        0.8706074518
 C       -12.7822943677        2.2159684838        2.9487090883
 C       -12.6880516298        3.8201931452        2.7989269921
 O       -11.8857934025        4.4003937546        3.4802733046
 C       -13.7416089850        4.5627226077        1.8512045380
 C       -13.5834989643        6.0371457862        2.1024788479
 C       -12.3534379963        6.5394383200        1.2914720681
 O       -11.4982191877        5.7336402713        0.9350981221
 C       -12.2839970227        8.0521436392        0.9102370752
 C       -12.0819120809        8.8688086215        2.2474212379
 O       -12.8441816180        8.8234237490        3.1781251021
 C       -10.8386055748        9.8777224667        2.3218825032
 C       -10.0380086132        9.7776486601        3.6490721729
 C        -9.5144305666        8.3046383235        3.7496621608
 O        -9.8048987197        7.5512357845        2.8610907738
 C        -8.6380193092        7.8977050014        4.9341979371
 C        -7.4982313218        6.8299225162        4.3513274900
 O        -7.9069157711        5.7595906057        3.9359613922
 C        -6.0160047887        7.1302819077        4.5443370241
 C        -7.8981397794        9.0923039103        5.5927756803
 C        -9.5327970430        7.1698265234        6.0168076179
 C       -11.1317613202        8.2428506306       -0.1181838790
 C       -13.5698549580        8.4647906038        0.2480669089
 C       -14.1045961195        1.7398951720        2.2963603289
 C       -13.0288656773        1.7465736536        4.3793778131
 C        -7.1089445807        1.1152092841        0.1196710719
 C        -6.5406465652        2.9098968010        1.7147941556
 C       -10.9181032011        3.5539911760       -5.2774597345
 C       -11.0443657382        3.0052177948       -2.7940488725
 C        -7.0659166315       -3.0803984038       -7.8366430186
 C        -7.5955586491       -3.2219336067       -5.3567888687
 H        -6.2048719531       -0.5092714614       -8.2916831857
 H        -4.6218293493       -0.7637962019       -7.7118489600
 H        -5.4861378384        0.5676528323       -7.1147248536
 H        -8.9652842635       -1.1124081363       -4.7779192915
 H       -10.4499121610       -1.5188614137       -5.5646358043
 H       -10.4850341965        0.9709665685       -6.4866854646
 H        -8.7966485167        1.0638205049       -5.9612894825
 H        -7.2023739258        1.9481424430       -2.9299036911
 H        -8.8042391987        1.7920969497       -2.0690905651
 H        -7.3300733643        4.5199533729       -2.0117843766
 H        -6.3438336398        3.2150206166       -1.4215359743
 H        -8.7287372655        0.0239180933        2.1223666693
 H        -9.7337461014        0.3004717352        0.8874811300
 H       -10.4901762006        1.0251534352        3.7852557655
 H       -11.0274817844       -0.3878491710        2.7373160747
 H       -14.7076271043        4.2350524485        2.1576970390
 H       -13.5283171144        4.2945920167        0.8335185863
 H       -13.4762337691        6.2462190618        3.1490275394
 H       -14.5262762338        6.6033623975        1.8609585090
 H       -11.2369902237       10.8914066678        2.2235535270
 H       -10.2762226893        9.8327844833        1.4095602053
 H       -10.7249409436        9.9188337443        4.4285764164
 H        -9.2106482434       10.4219933942        3.6174035039
 H        -5.7782730558        8.1550737434        4.3222280398
 H        -5.4038194474        6.4947684595        3.9461034180
 H        -5.5945137933        6.8622055946        5.5086464504
 H        -7.0497184900        8.7655328819        6.1245108758
 H        -8.6968268495        9.5427240874        6.1647541668
 H        -7.4927274892        9.7444092584        4.8439626238
 H        -9.8111190213        6.1296794113        5.7414566239
 H       -10.4861900314        7.7875466206        6.0142957170
 H        -9.0978104212        7.2924457254        7.0272748245
 H       -11.4979645871        7.7502498031       -1.0005999336
 H       -10.3030717818        7.6272788204        0.2317457763
 H       -10.9381605304        9.3015386967       -0.3047383365
 H       -13.5014871887        9.5000782793       -0.0066593245
 H       -14.4288513211        8.2808326971        0.8915242979
 H       -13.7641954534        7.8974002305       -0.7461980857
 H       -14.0399236254        2.0311501606        1.2641147314
 H       -14.9750660270        2.1472223052        2.8172399406
 H       -14.1420798706        0.6643368904        2.3546771172
 H       -12.3492181588        2.0811688736        5.1736594619
 H       -12.7859856119        0.6565453620        4.4650296828
 H       -14.0372808499        1.9220045873        4.6965576994
 H        -6.8398828380        0.2665224877        0.7272747396
 H        -6.2275776862        1.3161560928       -0.5362317282
 H        -7.9177068542        0.7045681020       -0.5330655133
 H        -6.1696302452        2.0502412873        2.3002199630
 H        -6.7159370887        3.6739096299        2.4200145861
 H        -5.7057225329        3.3566275696        1.1707474383
 H       -10.5453309025        3.0927095132       -6.1907322797
 H       -10.8005944821        4.6454549439       -5.1930601771
 H       -11.9493452563        3.3461598922       -5.2404495387
 H       -10.7531638758        3.9291077844       -2.3290111855
 H       -10.8119221594        2.1952640472       -2.1246312350
 H       -12.0281760887        3.2308939278       -3.1073635463
 H        -7.8572060596       -3.8175782048       -8.0375015686
 H        -6.0768599960       -3.5037991000       -7.8017201870
 H        -7.0145833804       -2.5235092121       -8.7683947104
 H        -6.7718543510       -3.9098472285       -5.4286631918
 H        -8.5750483042       -3.6964416426       -5.4860241501
 H        -7.4545486943       -2.7177127028       -4.4004376817
 Na       -9.6071847117        5.2556236112        2.2741959654
