117

 C        -5.7063876659       -0.3537360921       -7.2877037111
 C        -6.2945715649       -1.0744104439       -6.0466465275
 O        -5.9394367228       -0.8637442711       -4.9254947025
 C        -7.3622562569       -2.1516483008       -6.4312736648
 C        -8.6626319745       -1.2773065227       -6.8372290488
 O        -8.9123738945       -0.9437066040       -7.9760911630
 C        -9.5746279521       -0.9689562098       -5.7009905354
 C       -10.0525614153        0.4879985775       -5.4512542817
 C       -10.1015697700        1.0141609808       -3.9949336883
 O       -10.0432450730        0.2511376655       -3.0419753011
 C       -10.3149170932        2.5464501630       -3.7293476094
 C        -8.8210010493        3.1544734315       -3.7341971517
 O        -8.4419454868        3.9722350141       -4.5720343731
 C        -7.7529149053        2.6495254091       -2.7069728333
 C        -7.4747646572        3.6727716302       -1.6270284657
 C        -8.1019473222        3.6504030913       -0.2025248428
 O        -8.5683972897        4.7082146835        0.2052501675
 C        -7.7327986091        2.4110584060        0.8352874631
 C        -8.8269817052        2.1151241328        1.9338277821
 O        -9.1428287700        3.0439570205        2.6802896679
 C        -9.5387148692        0.7637229075        2.1236918662
 C       -10.8335079305        0.6934498786        2.8447256544
 C       -11.8729741364        1.4715579584        1.9989069500
 O       -11.7034495460        1.6879806864        0.8017318243
 C       -13.0473739161        2.2278455940        2.7278186743
 C       -12.7341848402        3.7457666960        2.5699829016
 O       -11.7617610598        4.1656018295        3.1353691450
 C       -13.7256928721        4.6618583601        1.7508039763
 C       -13.3745244505        6.1616223512        1.8397852676
 C       -12.1446915914        6.6406964857        1.0196396736
 O       -11.3138109860        5.7524788026        0.7795458486
 C       -12.0190445574        8.1941078006        0.6039287511
 C       -11.8534992835        8.8871325133        2.0144674297
 O       -12.5600898721        8.5976199660        2.9862338481
 C       -10.8332947513       10.0366378342        2.3301652655
 C       -10.0962116432        9.7381565290        3.6416356854
 C        -9.4386700234        8.2696738110        3.5816641183
 O        -9.8189130867        7.4972119678        2.7392251386
 C        -8.5219652019        7.8695532699        4.8045076526
 C        -7.4456809101        6.8694344898        4.3511394107
 O        -7.6738007158        5.9331719794        3.5943505092
 C        -6.0380464394        6.9454163738        4.9218123061
 C        -7.9119288008        9.0824374412        5.6123346881
 C        -9.4687206166        7.0837186780        5.8221442763
 C       -10.9268590513        8.4308494264       -0.4671086379
 C       -13.3473332704        8.7148577737        0.0670503311
 C       -14.3825654189        1.8530321734        2.1052406433
 C       -13.1299649177        1.9163216955        4.2093479961
 C        -7.1823505091        1.2090645385        0.1103399019
 C        -6.6096674667        2.9850541476        1.7136837626
 C       -11.1583512049        3.3520282124       -4.8894681744
 C       -11.1106915223        2.7662630578       -2.4172555746
 C        -7.0118202306       -3.0503838396       -7.6607395361
 C        -7.6391749082       -3.0056653431       -5.1414458797
 H        -6.5213824119       -0.2120569583       -8.0676378106
 H        -4.8473336544       -0.9062304915       -7.8096713533
 H        -5.1611620080        0.5589955675       -7.0299115303
 H        -9.2484255360       -1.4086294250       -4.7605925763
 H       -10.4904806640       -1.5423931194       -5.9453701677
 H       -11.0149386901        0.7099772992       -5.8262461301
 H        -9.3633590604        1.2037050490       -5.9350908970
 H        -6.8808385193        2.5409463080       -3.2583528084
 H        -7.9716803145        1.6472069629       -2.3048145446
 H        -7.6364444538        4.7315536078       -1.9508927915
 H        -6.3348606651        3.7657360173       -1.4500643253
 H        -8.7629115005        0.1136980255        2.6543826650
 H        -9.5981578997        0.2315510323        1.1341002464
 H       -10.7846777305        1.1009702670        3.8540895657
 H       -11.2316100139       -0.3090037141        2.8770571150
 H       -14.7024630224        4.5969457365        2.3144183305
 H       -13.7264082592        4.3259806062        0.6762023318
 H       -13.3437886371        6.5591620705        2.8476333394
 H       -14.2584691989        6.6840274510        1.5123309472
 H       -11.2916651110       11.0229651775        2.3733879772
 H       -10.1223258242       10.2458070230        1.4466523123
 H       -10.9007748087        9.6239111517        4.4449259295
 H        -9.3291842539       10.5337588121        3.7962263032
 H        -5.4138633837        7.6569761958        4.3486949278
 H        -5.5623195975        5.9450205502        4.9300041360
 H        -5.8519779800        7.1775648894        5.9691951339
 H        -7.6794866201        8.6554702672        6.6109732006
 H        -8.7296445651        9.7796153124        5.7685897987
 H        -6.9376381563        9.4017824672        5.2058538874
 H       -10.1970464892        6.5697944327        5.2432359047
 H       -10.0667710915        7.7449504969        6.4333799440
 H        -8.8211839444        6.4677753969        6.3799350283
 H       -10.9213459147        7.5356160428       -1.0961305345
 H        -9.9922910049        8.5214353420        0.1079995291
 H       -11.2083317004        9.2243301514       -1.1218317442
 H       -13.1233800244        9.4858604409       -0.6484855850
 H       -14.0304269186        9.1046015997        0.7766528132
 H       -14.0017422902        7.9632271452       -0.4973005633
 H       -14.2478143811        1.9151782997        1.0317599964
 H       -15.1192870344        2.4703303460        2.6217475932
 H       -14.6437341488        0.8085919997        2.3563227977
 H       -12.2157852225        2.0439578607        4.7594678773
 H       -13.4455310671        0.8734683072        4.4646543893
 H       -13.8826523645        2.4651115570        4.5999934022
 H        -6.9327536273        0.4200140772        0.7935219235
 H        -6.2808531925        1.4898805575       -0.3455516419
 H        -7.8283293642        0.6969186392       -0.5615534001
 H        -6.3818835748        2.3665575245        2.5914654931
 H        -6.6631693724        3.9651651414        2.2258576210
 H        -5.6991536147        3.0108435920        1.1103262732
 H       -10.5002838713        3.4971095497       -5.7241287195
 H       -11.3810621760        4.3036135662       -4.4116586060
 H       -12.0951385055        2.9454833368       -5.1909856424
 H       -11.1402463336        3.8119077734       -2.2098800077
 H       -10.4283213307        2.2682461348       -1.6606079921
 H       -12.1378011087        2.3353289241       -2.5554025497
 H        -7.7844941009       -3.8499686206       -7.6681470987
 H        -6.0523132041       -3.5225510122       -7.6567103555
 H        -7.0828177618       -2.5775284447       -8.6325316179
 H        -6.7979366162       -3.7104399323       -5.1057199496
 H        -8.5796759229       -3.5037098242       -5.2820056769
 H        -7.6191377209       -2.3610574388       -4.2795217304
 Na       -9.6041349636        5.2008704884        2.2898568843
