117

 C        -5.2286257357       -0.6893636528       -7.5301407000
 C        -6.0708545956       -1.3830445879       -6.3356103617
 O        -5.7898230971       -1.1888287719       -5.1724287363
 C        -7.2778941986       -2.2248426783       -6.7806385205
 C        -8.3601179899       -1.1416594043       -6.9757909158
 O        -8.7750255226       -0.6657628693       -8.0173152029
 C        -9.0143283343       -0.5744676477       -5.6327430387
 C        -9.5425416705        0.8001715634       -5.9081257593
 C       -10.2247742633        1.3491399297       -4.6069063351
 O       -10.7467640957        0.7100399573       -3.7356736086
 C       -10.1266721985        3.0336447146       -4.4240646519
 C        -8.6902345836        3.2482255698       -3.7607370520
 O        -7.8806763976        4.0119648448       -4.1943539425
 C        -8.4635520669        2.5208918599       -2.3599506517
 C        -7.2763007542        3.2888057694       -1.6465959066
 C        -7.7100808741        3.5361830993       -0.1294367050
 O        -8.3395123717        4.4975929501        0.2182028025
 C        -7.4027213883        2.3407092940        0.9068690810
 C        -8.7179644111        1.9958227209        1.5512584082
 O        -9.2543735275        2.8433619087        2.2336766093
 C        -9.4149514450        0.6739676310        1.5025384244
 C       -10.6387575478        0.5116981026        2.4130578818
 C       -11.7912302067        1.5736619693        1.9627439430
 O       -11.9527288929        1.8859799616        0.8286261024
 C       -12.8164961865        2.0826925330        3.1369374603
 C       -12.6697769632        3.7710493670        3.2360434819
 O       -11.7331169120        4.3359618157        3.7179495364
 C       -13.8204580893        4.4849786711        2.5026469491
 C       -13.6277153215        6.0200771215        2.3518110120
 C       -12.5073816057        6.5707846568        1.4291605348
 O       -11.5556609939        5.8527759568        1.0945311763
 C       -12.4925222732        8.1084802282        1.0932397623
 C       -12.2091458300        8.9499647702        2.4195885863
 O       -12.9482792466        8.7585737582        3.3890587821
 C       -11.0702564791        9.9545674869        2.4223342181
 C       -10.2373031516        9.7717472195        3.7556650887
 C        -9.6029582094        8.3814551524        3.7082662538
 O        -9.9415255007        7.6090577951        2.8549668088
 C        -8.6970113364        7.8808404160        4.9435937433
 C        -7.6870296756        6.8756546044        4.3330880267
 O        -8.0593163332        5.7381121076        4.0455653474
 C        -6.2067584626        7.2539593253        4.1234822035
 C        -8.0257368690        9.0725418928        5.7643563588
 C        -9.6484817811        7.0080972001        5.8524104709
 C       -11.4405830546        8.3731507505       -0.0643354801
 C       -13.8561022152        8.6989463240        0.5265576873
 C       -14.2374191827        1.4180877182        2.9145379627
 C       -12.3694682485        1.6743586664        4.5456510258
 C        -6.6447641567        1.1107649931        0.3281882043
 C        -6.4565787951        3.0037994532        1.9779509021
 C       -10.3324703031        3.6063621525       -5.8194274015
 C       -11.2697969109        3.5422025824       -3.5509162796
 C        -7.1083317890       -2.9904544005       -8.1360305134
 C        -7.6046038635       -3.2573034882       -5.7061677274
 H        -5.7562934219        0.1118563469       -7.9852412694
 H        -5.1502424800       -1.3460581639       -8.3709954969
 H        -4.2922826750       -0.3614934306       -7.2593683936
 H        -8.3163987419       -0.6596202622       -4.7997028672
 H        -9.8285094653       -1.2818669090       -5.4078606624
 H       -10.3574082532        0.5694753579       -6.6630242265
 H        -8.9029724531        1.5409415957       -6.4144441299
 H        -8.1980594086        1.4609963706       -2.4828103652
 H        -9.4620567034        2.5396544428       -1.7917084278
 H        -7.2201463960        4.2215076577       -2.1407373074
 H        -6.3636477016        2.7727110445       -1.6292092151
 H        -8.6683651859       -0.0713277264        1.7414192418
 H        -9.6043127374        0.3364666994        0.5155578004
 H       -10.3182756022        0.6515143730        3.4801172684
 H       -11.0911883428       -0.4701191708        2.2360496472
 H       -14.7509234669        4.1839001461        2.9579198029
 H       -13.8610419640        4.0276929304        1.5290484447
 H       -13.5043465793        6.5036081116        3.3331698740
 H       -14.6223657032        6.3889172530        1.9085745303
 H       -11.4564255293       10.9521995420        2.3044600436
 H       -10.4407602830        9.7325247816        1.5503139249
 H       -10.8255397672        9.7565909962        4.6607533252
 H        -9.4000434914       10.4575481933        3.7507467831
 H        -6.1355000053        7.8810141970        3.2594705649
 H        -5.5340292590        6.4512165341        3.8788815269
 H        -5.7012513672        7.7943444856        4.8947465884
 H        -7.1516202025        8.5629211925        6.1824171211
 H        -8.7370800009        9.5808127208        6.4284104789
 H        -7.6729886128        9.8417014098        5.0271286632
 H       -10.1052349171        6.2224808655        5.2497275832
 H       -10.2879816625        7.5789871055        6.5503094456
 H        -9.0351088688        6.4045814269        6.5123412855
 H       -11.8615764862        7.9312119296       -0.9575140859
 H       -10.4968268041        7.8337231053        0.1071998234
 H       -11.3077365638        9.4382489479       -0.1084470100
 H       -13.6315313977        9.6477180657        0.1351350931
 H       -14.5901459229        8.9336150884        1.2435606502
 H       -14.2142022138        8.0502658916       -0.3209665305
 H       -14.7182288870        1.7275304013        1.9998047349
 H       -14.8929615721        1.7514001968        3.7277750684
 H       -14.1218832032        0.3435729801        3.0144942664
 H       -11.4096484758        2.0867095647        4.9287016081
 H       -12.2249442026        0.5552152599        4.7693784615
 H       -13.0282038836        2.0670703764        5.2774631786
 H        -6.1858411079        0.5011916058        1.1290232287
 H        -5.7693916651        1.4529886772       -0.2663973386
 H        -7.2399019132        0.5186080120       -0.4282872704
 H        -6.2383961661        2.2475571799        2.7257215237
 H        -6.7740545771        3.9363245444        2.4217532469
 H        -5.4652522388        3.2828919703        1.6341844759
 H        -9.3931512446        3.6604822022       -6.4348044249
 H       -10.7029794655        4.6879983888       -5.7140276279
 H       -11.1342913174        2.9987872615       -6.3454883253
 H       -11.0853566125        4.5975898778       -3.4914851189
 H       -11.3240774636        3.0501681778       -2.5177490888
 H       -12.2197149305        3.4796638367       -4.1112889682
 H        -7.8997437908       -3.7487191399       -8.2790130552
 H        -6.2051997409       -3.5687024266       -8.1812642753
 H        -7.0966918081       -2.4146644956       -9.0531657195
 H        -6.7636824068       -3.9780534471       -5.6539729528
 H        -8.5062378279       -3.7992290605       -6.0241439549
 H        -7.6916004341       -2.7332188422       -4.7452401729
 Na       -9.8470517570        4.9805327552        2.4034825754
