117

 C       -13.7122482857        5.0403427556        0.9232497338
 C       -12.6487603383        4.0063204875        0.9943089545
 O       -12.4897192835        3.1610754897        0.1326681104
 C       -11.6123380479        4.1117517819        2.2080412460
 C       -11.5451716578        2.5519385911        2.7348336173
 O       -10.5967882936        1.9510984366        2.3185309459
 C       -12.6525199037        1.7787967542        3.5807634983
 C       -12.3216302399        0.2343214572        3.8810397564
 C       -13.6236376333       -0.5124955638        3.5902325585
 O       -14.5454219193       -0.3076519316        4.3550572323
 C       -13.7006965987       -1.6710845129        2.5685429115
 C       -13.3874718806       -0.9434870540        1.0960592514
 O       -12.8931969483        0.1830935039        1.0653202646
 C       -13.6053697043       -1.7571362391       -0.1927973151
 C       -12.4047912263       -2.6186762834       -0.5760083802
 C       -11.1447160096       -1.9131312923       -1.2003377896
 O       -11.3985681188       -0.6959062427       -1.4074342616
 C        -9.8534193870       -2.7551664272       -1.6374888562
 C        -8.6327153554       -2.2973484111       -0.7752448154
 O        -8.7293701769       -2.3823390871        0.4440814852
 C        -7.3189720210       -1.7138335401       -1.5317867636
 C        -6.5536815509       -0.7830430410       -0.6936634434
 C        -7.5669964613        0.3527285694       -0.4040482240
 O        -8.7537881637        0.1856071458       -0.5227545350
 C        -7.0743993748        1.7793087133        0.1791653234
 C        -7.5506174596        2.8472270713       -0.8267151358
 O        -8.7729259876        3.1317826386       -0.7965850439
 C        -6.7408899859        3.5572852573       -1.8578250842
 C        -7.1618465435        4.9881578997       -1.8756980387
 C        -6.4420580475        5.8438030245       -0.8590201021
 O        -6.3345788715        5.3583128247        0.2517377684
 C        -6.0343447020        7.2330990268       -1.4230673254
 C        -7.4310085043        8.0440719277       -1.5222960031
 O        -8.4223987787        7.4738556858       -1.0843527820
 C        -7.3035333276        9.5504350898       -2.0176211011
 C        -8.3942861793       10.2771883908       -3.0706227481
 C        -9.6460998188       10.9136783225       -2.4345508394
 O       -10.4939890518       10.2227523438       -1.9364916830
 C        -9.7964746520       12.4254735232       -2.3914833750
 C        -9.5539428002       12.8001974799       -3.8634971434
 O       -10.1206084643       12.2144059883       -4.7515974903
 C        -8.4592909324       13.9154986446       -4.3158902674
 C       -11.2731188373       12.8045378504       -1.9863420755
 C        -8.8674456851       13.0824797843       -1.2718379368
 C        -5.1703338551        8.0574539297       -0.4115429934
 C        -5.2631746847        7.1001079994       -2.7469370320
 C        -7.7943289188        1.7180723334        1.5015640027
 C        -5.4682681000        1.9272567343        0.3747009979
 C       -10.0614604733       -4.2719362585       -1.4843866583
 C        -9.7227626230       -2.3573150608       -3.1122824501
 C       -12.5682285854       -2.7899411712        2.9338134061
 C       -15.1636970309       -2.2512305059        2.6089285796
 C       -10.3436663995        4.8276062913        1.6604968136
 C       -12.0701004333        5.0580383823        3.3769694105
 H       -14.4051423552        4.7866950127        0.1359415498
 H       -13.1965403806        5.9503893477        0.9924045665
 H       -14.2900131700        4.9627638084        1.8638467970
 H       -13.5984339121        1.8641824846        3.0306666077
 H       -12.8668987411        2.4717186385        4.4348976507
 H       -11.9622993643        0.2300455677        4.9372923888
 H       -11.4634812977        0.0514738264        3.2723980217
 H       -13.5805400929       -0.9402243237       -1.0004301007
 H       -14.4887250872       -2.3160976045       -0.3882730778
 H       -12.8430667793       -3.3969641606       -1.1735719833
 H       -12.0239830397       -3.1374984421        0.2963264495
 H        -7.6522006721       -1.1500899586       -2.4882791035
 H        -6.7306792089       -2.5578264453       -2.0811546085
 H        -5.6156715188       -0.2941798755       -1.1565119629
 H        -6.3721096061       -1.2252338689        0.2658823812
 H        -6.9770922946        2.9813213283       -2.7847546197
 H        -5.5702805723        3.5758030454       -2.0055338475
 H        -8.2440337215        4.9472618531       -1.6932491293
 H        -7.1305248623        5.3949075830       -2.9046762891
 H        -6.3887399222        9.5918609624       -2.6051613358
 H        -7.0647600420       10.3100705275       -1.2502163569
 H        -8.8788023962        9.6209278906       -3.7846934826
 H        -7.6849004380       10.9310369179       -3.5220061914
 H        -8.9918777287       14.8125441421       -4.6212830883
 H        -7.9213666205       13.7448837186       -5.2876492425
 H        -7.7767565612       14.1829419019       -3.5796066843
 H       -11.4324683504       13.5917658759       -1.2926638890
 H       -11.9445132279       12.0477311354       -1.6217694787
 H       -11.9011419065       13.1691312685       -2.7773628444
 H        -8.9811517889       14.2183251326       -1.1943246739
 H        -7.7480827064       12.6890821721       -1.4339637218
 H        -9.1931864474       12.6415431022       -0.3265648528
 H        -5.0615314313        9.1286257851       -0.5228593641
 H        -4.1269311049        7.7295577204       -0.2660458447
 H        -5.7181019510        7.8236191631        0.4296961757
 H        -4.5983074592        7.9659016409       -2.8709545412
 H        -5.8588002821        6.9833699682       -3.6000070949
 H        -4.4646705483        6.2526354015       -2.5927405869
 H        -7.5395673316        0.7395577432        1.9443001020
 H        -8.8807514289        1.7035869401        1.4803181642
 H        -7.4498049358        2.5069376622        2.2508856595
 H        -5.1674791428        2.8647183116        0.8464647903
 H        -4.9124280141        1.9294402984       -0.5500530016
 H        -4.9835449943        1.0810633927        0.8488672446
 H       -10.2695848467       -4.3378908909       -0.4119360859
 H        -9.1680453162       -4.8633665141       -1.9019987683
 H       -11.0835667363       -4.4792033666       -1.9572716580
 H       -10.6538145548       -2.4875367802       -3.5502260134
 H        -8.8530176054       -2.7996630147       -3.6204433109
 H        -9.5506563968       -1.3134007072       -3.1397395715
 H       -11.7525827564       -2.7219519702        2.1973721202
 H       -12.8468925486       -3.8391308506        2.9628459620
 H       -12.1735314378       -2.5423401858        3.9636415207
 H       -15.5016438292       -2.3669473954        3.6556487731
 H       -15.3307046637       -3.2939466664        2.2125724613
 H       -15.8852831875       -1.6193683669        2.1260024596
 H        -9.9309253846        4.4554370535        0.7062485914
 H        -9.4757327543        4.8235313479        2.2994528242
 H       -10.5352825078        5.8392157270        1.3080220578
 H       -11.3891964616        4.8325759905        4.1812875049
 H       -13.1687484771        5.0488486869        3.7414978538
 H       -11.8416812365        6.0595372568        3.0755921059
 Na      -10.8122054407        1.8005435990       -0.0288056816
