117

 C        -5.7578090139       -0.3426409239       -7.1953756568
 C        -6.3565158574       -1.0169878421       -5.9273691672
 O        -6.1541790212       -0.6147667160       -4.8085228123
 C        -7.4447816893       -2.0895110038       -6.2493902105
 C        -8.7866459872       -1.3581599937       -6.5155531059
 O        -9.0364425634       -0.8822679297       -7.6120767203
 C        -9.7287499785       -1.1420291873       -5.4019713239
 C       -10.1938784798        0.3555699622       -5.3342977654
 C       -10.0926333505        0.9293362398       -3.8888732377
 O        -9.6602468009        0.1362826139       -3.0571882971
 C       -10.4636273963        2.4350007373       -3.5997885703
 C        -9.0524911939        3.1388149017       -3.5080057077
 O        -8.7585729279        4.0300084284       -4.2851818522
 C        -8.0444348001        2.6262455972       -2.4745856218
 C        -7.4740399973        3.6106449725       -1.4845108195
 C        -8.1155136634        3.5289986942       -0.0669485757
 O        -8.9509479710        4.3817384032        0.1902261636
 C        -7.5921579536        2.4302535707        0.9285818470
 C        -8.6932982003        2.1298082555        2.0393896897
 O        -8.9644339956        2.9883081543        2.8684537286
 C        -9.5697939218        0.8276668097        1.8861281368
 C       -10.8164794114        0.9817502511        2.7412527254
 C       -11.9938096380        1.5533483026        1.8803956780
 O       -12.0490142799        1.3835841006        0.6882559845
 C       -13.1524111673        2.3141822525        2.6265961693
 C       -12.6890128568        3.7765467313        2.4013403879
 O       -11.7281200170        4.2210023479        3.0218436290
 C       -13.5370567807        4.6338253726        1.4199283867
 C       -13.2568555047        6.1928991904        1.6061138641
 C       -12.1165500118        6.6853214867        0.7180146576
 O       -11.3099162355        5.8896100469        0.2135983058
 C       -11.9348301572        8.2924394120        0.5190413983
 C       -11.7463437251        9.0097745219        1.9939694500
 O       -12.5026101039        8.7448903083        2.9503193696
 C       -10.5655007223        9.9897909901        2.0734360469
 C        -9.8002847423        9.7480189443        3.4151018284
 C        -9.3422977933        8.2916166767        3.4607508917
 O        -9.6943245232        7.5013278684        2.6012769325
 C        -8.5039126525        7.8517446749        4.7221080226
 C        -7.4328156979        6.8190322793        4.3322089871
 O        -7.5515273837        6.1406836131        3.3402253716
 C        -6.1396240171        6.7651118030        5.1255438005
 C        -8.0332481618        9.0297694425        5.6592630450
 C        -9.4921296075        6.9218028749        5.5766152149
 C       -10.6985631921        8.4689888415       -0.4312798039
 C       -13.1313201066        8.9526296617       -0.1218960953
 C       -14.4420119386        1.9088294025        1.7696656951
 C       -13.1316700778        1.9738534310        4.1316615178
 C        -7.1428475482        1.1291089040        0.1968873997
 C        -6.2955727710        3.1205780508        1.5952770410
 C       -11.4135456351        3.1512743639       -4.4927116129
 C       -10.9300916420        2.5194758857       -2.0570251017
 C        -7.1232942164       -2.8935192452       -7.5646778214
 C        -7.4647856576       -3.0249443448       -5.0222649367
 H        -6.5809265517        0.2443454473       -7.5659211491
 H        -5.3731373933       -0.9005870132       -7.9888191667
 H        -4.9813092911        0.2946423125       -6.9297354638
 H        -9.3456363544       -1.4806188791       -4.4261718197
 H       -10.6122158919       -1.7306771561       -5.6534783296
 H       -11.1794099531        0.5459469739       -5.7149577093
 H        -9.3662624565        0.9343186813       -5.8803536370
 H        -7.2374347938        2.2152162581       -3.1285285529
 H        -8.3915166633        1.7029568463       -1.9763908977
 H        -7.4567752421        4.6229132322       -1.7915198945
 H        -6.4342696512        3.4203697113       -1.3382465074
 H        -9.0305572129       -0.0287982331        2.2916600719
 H        -9.7695397282        0.6923529226        0.8007757439
 H       -10.5842604413        1.6660191004        3.5476481609
 H       -11.1359843307        0.0116303427        3.2296952426
 H       -14.5318788708        4.4769165882        1.7851232123
 H       -13.3475934549        4.2947315786        0.4161707995
 H       -13.1802711729        6.4719451147        2.7088675698
 H       -14.1457678527        6.7726859092        1.3969463233
 H       -11.0040774996       10.9469346516        2.0497560854
 H        -9.8754643776        9.9836728227        1.1891136677
 H       -10.4112940373        9.8574462785        4.3205083136
 H        -8.9137584908       10.3937360292        3.4879368457
 H        -5.5598449358        7.6596332698        5.1417960134
 H        -5.4877498757        5.9693250579        4.7203096948
 H        -6.2367236760        6.5283451168        6.1468080911
 H        -7.3069748137        8.5816029777        6.3467416048
 H        -8.8203443825        9.3658863009        6.3299264122
 H        -7.6130609261        9.8811258570        5.0812079977
 H        -9.6418822972        6.0392259753        4.9229540109
 H       -10.5142857287        7.3240401742        5.6771619652
 H        -8.9368159599        6.6686694673        6.5009899698
 H       -11.0440717776        8.2754256324       -1.4449252386
 H        -9.9594535027        7.7895539437       -0.0032317612
 H       -10.3296316746        9.4708496084       -0.4721173632
 H       -13.2319739947       10.0344259885       -0.0001702404
 H       -14.0560538557        8.5421991240        0.2264515708
 H       -13.1768288786        8.7267038225       -1.1901456537
 H       -14.2060898356        2.1621912941        0.7402435860
 H       -15.2907617305        2.4390737750        2.1476450150
 H       -14.5603284011        0.8379293178        1.8730490310
 H       -12.3154333206        2.6189949501        4.5777298602
 H       -13.0320344338        0.8590245081        4.3721560542
 H       -14.0277103646        2.2268704435        4.6847290897
 H        -6.7336666298        0.4097575524        0.9975344154
 H        -6.3273024960        1.3068193301       -0.5168417683
 H        -7.9183576000        0.5601815122       -0.3888363480
 H        -5.6472135011        2.5612068594        2.2166762130
 H        -6.6610493257        3.8340832604        2.3827950523
 H        -5.6481126424        3.5842812640        0.8893224592
 H       -10.8639298542        3.7988642275       -5.1909742192
 H       -12.0518887379        3.8318925747       -3.8648482506
 H       -12.0959893040        2.4055100183       -5.0013152317
 H       -10.8165085523        3.5273545108       -1.8301447950
 H       -10.4233660504        1.8193436465       -1.3529382359
 H       -11.9475589101        2.1471905428       -2.0563560644
 H        -7.7189546538       -3.8129257319       -7.5989360820
 H        -6.1221796417       -3.3184149758       -7.5826267846
 H        -7.2892472051       -2.3124559535       -8.4830703042
 H        -6.5154246193       -3.5913561334       -5.0104203166
 H        -8.2469475495       -3.7483604612       -5.1807089661
 H        -7.6612650900       -2.3621788331       -4.1933144577
 Na       -9.6135789101        5.2552098495        2.3443247299
