117

 C        -5.7997868940       -0.0006935619       -6.8374991715
 C        -6.5841449203       -0.6267694774       -5.6404904820
 O        -6.4571550368       -0.2317981132       -4.4885034475
 C        -7.5438560738       -1.9295704374       -5.9053598502
 C        -9.0205675752       -1.3306945835       -5.9336194576
 O        -9.4103006459       -0.6293593706       -6.8471383588
 C        -9.8881738656       -1.5613257418       -4.6288082354
 C       -10.7828819109       -0.3097224632       -4.4780695103
 C       -10.3191104143        0.5147383654       -3.2618711814
 O        -9.5750869288       -0.0768340654       -2.4221367974
 C       -10.6934701935        1.9733555489       -2.9811200716
 C        -9.4389784437        2.9732337989       -2.8225995313
 O        -9.6508350237        4.1433473271       -2.9064730886
 C        -7.9520454088        2.3952997398       -2.6897185510
 C        -7.0468671587        3.0223476880       -1.6653652899
 C        -7.7911545050        3.2997216263       -0.3643486593
 O        -8.5932292806        4.1871871556       -0.4044140820
 C        -7.3407413042        2.4840690628        0.9776598881
 C        -8.4781752653        2.3580812689        2.0324869879
 O        -8.5667545751        3.1060594304        2.9916046508
 C        -9.5588235950        1.2519912785        1.8916938222
 C       -10.8627391473        1.4869250090        2.7921953022
 C       -12.1631953108        1.6113498931        1.9422719546
 O       -12.3432923727        0.9703291479        0.9253539524
 C       -13.1849809887        2.7369821050        2.2923773236
 C       -12.5057186618        4.0491176769        2.0333301294
 O       -11.5924831776        4.4653108233        2.7169200555
 C       -13.0477877985        4.8754428075        0.8854834520
 C       -12.7686596804        6.4178680357        1.2053864842
 C       -11.6774690766        7.0006113805        0.3144950760
 O       -10.7889997916        6.2593288417       -0.0082055038
 C       -11.6104646334        8.5405183553       -0.0419513818
 C       -11.3498991407        9.3329259692        1.4124953946
 O       -12.2757043134        9.3816567571        2.1452196300
 C        -9.9601455904        9.9606640052        1.7640902185
 C        -9.6393557093        9.6023832134        3.2256117836
 C        -9.3506088911        8.0162161534        3.3490760126
 O        -9.7399760574        7.3333232312        2.4366117189
 C        -8.7307425408        7.2692948933        4.6013024961
 C        -7.5571954199        6.4919996097        4.0754846501
 O        -7.6811272917        5.7618355037        3.0661088859
 C        -6.1775223085        6.6655451298        4.7397433845
 C        -8.4242614669        8.2223075435        5.7755526031
 C        -9.9375278661        6.2737098272        5.0939216178
 C       -10.5588305124        8.7685861349       -1.1512801102
 C       -12.9052006806        9.2224264043       -0.4454412892
 C       -14.5314688253        2.4529181922        1.4179796437
 C       -13.4650590081        2.5297137401        3.8631167085
 C        -6.7762230840        1.0427050004        0.6060562974
 C        -6.1533009605        3.2734796022        1.5242877179
 C       -11.6162210489        2.7595462878       -3.9183056353
 C       -11.4877926660        2.0510375734       -1.6023555207
 C        -7.3142696653       -2.5333749666       -7.3160093398
 C        -7.2171668569       -2.9831352045       -4.8113230729
 H        -6.3884708328        0.8255222622       -7.2899461488
 H        -5.8087884769       -0.7327592898       -7.7164703633
 H        -4.8696762876        0.5615283535       -6.5605176204
 H        -9.2883300297       -1.7682520704       -3.7469075924
 H       -10.4482789951       -2.4437922615       -4.9565400382
 H       -11.7962259578       -0.5961807058       -4.4786859884
 H       -10.6959945706        0.3360212053       -5.4127975096
 H        -7.5449118961        2.5236322207       -3.6875084402
 H        -7.9701013136        1.2774363037       -2.4390793925
 H        -6.8045695604        4.0077320549       -2.0191772489
 H        -6.2226602898        2.3167625256       -1.5504031632
 H        -9.0527610869        0.3838337697        2.2163866467
 H        -9.7911620143        1.3444423691        0.8497051645
 H       -10.7693132881        2.3984684187        3.3673747776
 H       -10.8771987496        0.7328498952        3.6064079814
 H       -14.1311090357        4.7389864338        0.8268631327
 H       -12.5314359018        4.4642609423        0.0079966532
 H       -12.4352163837        6.4216172806        2.2756810387
 H       -13.7196663546        6.9002424119        1.2315617495
 H       -10.1566924506       11.0072746004        1.7169633715
 H        -9.1822284729        9.6030625636        1.0570536983
 H       -10.4323558737        9.8547009343        3.9054401530
 H        -8.8956497231       10.2419288910        3.6116566898
 H        -5.9947997670        7.5440264009        5.3921191154
 H        -5.3144838975        6.5278518864        4.0740714594
 H        -6.0228799220        5.9128587354        5.5444354519
 H        -8.2603240127        7.6779456380        6.7112684908
 H        -9.2504626072        8.9200484490        5.8663661104
 H        -7.4905338542        8.7798283100        5.7431727871
 H        -9.7514946615        5.4102742868        4.5154076190
 H       -10.8971194131        6.7488128578        5.0553619079
 H        -9.7890032534        5.9819750903        6.0933916356
 H       -11.0057169874        8.5130405297       -2.1193887935
 H        -9.7458932303        8.0369931968       -1.1453398827
 H       -10.2189604047        9.8148336977       -1.1777388710
 H       -12.8256267541       10.2632111204       -0.6624220280
 H       -13.7836592563        9.0610466828        0.1428657487
 H       -13.3052874741        8.8306451565       -1.4516347374
 H       -14.3135904442        2.3196341814        0.3426780521
 H       -15.2898030248        3.2454950259        1.5622144006
 H       -14.9510549267        1.4998970668        1.8139754620
 H       -12.5930830134        2.6458865463        4.4698754607
 H       -13.6839429581        1.4832239925        3.9640215507
 H       -14.2780650210        3.1248774298        4.1413165941
 H        -6.6360436215        0.4235210710        1.4449972258
 H        -5.8479885755        1.1722633737        0.0867787813
 H        -7.5500107519        0.6600007254       -0.0175749014
 H        -5.6706432057        2.5343239238        2.1846910601
 H        -6.2378914744        4.2232631432        1.9750201511
 H        -5.4587073192        3.5412506151        0.7164463785
 H       -11.3091786914        2.6027418936       -4.9462669694
 H       -11.5731709106        3.8193461190       -3.6956304340
 H       -12.5878714405        2.4614401543       -3.8370893715
 H       -11.6150814670        3.0710176532       -1.2836443833
 H       -11.0300282101        1.3971251113       -0.8073568398
 H       -12.5000182116        1.7604797732       -1.8886824463
 H        -8.0698795817       -3.3195604258       -7.4908379567
 H        -6.3156676961       -2.8709634704       -7.3311423235
 H        -7.4504459412       -1.8234083366       -8.1106638111
 H        -6.1567321614       -3.2193895804       -4.8795545378
 H        -7.9174675384       -3.7837119713       -4.8740994598
 H        -7.3057040790       -2.4402912050       -3.8875629837
 Na       -9.6067894779        5.0811905840        1.7724263341
