117

 C       -13.7684646975        5.2176573719        0.9091950553
 C       -12.5865792486        4.1593895509        1.0377666212
 O       -12.3733539995        3.5232926855        0.0259150851
 C       -11.6790210264        3.9530613065        2.3781038174
 C       -11.4574080889        2.4641741774        2.6184904173
 O       -10.4855497331        1.8022535684        2.1463916754
 C       -12.5062293088        1.8935232202        3.6141651394
 C       -12.3226615919        0.4051513370        3.7463528882
 C       -13.6438533655       -0.4191597613        3.6682683336
 O       -14.4965884269       -0.1617313444        4.4605218303
 C       -13.8079928424       -1.5301032545        2.5956745777
 C       -13.4673998000       -0.7129199523        1.2795427152
 O       -13.2295105035        0.4588902283        1.0850772601
 C       -13.6613431146       -1.5361415923       -0.0401476968
 C       -12.2833838539       -2.4725032637       -0.4484848128
 C       -11.1560500525       -1.7239271693       -1.0915669080
 O       -11.1736683587       -0.5601899610       -1.2144827037
 C       -10.0335686258       -2.7942797944       -1.5534324010
 C        -8.7037625499       -2.4400274439       -0.7384292396
 O        -8.6550525675       -2.9182013471        0.3594768519
 C        -7.4395345698       -1.9222985134       -1.3477993651
 C        -6.6776692591       -0.9067019758       -0.3856397807
 C        -7.5610857252        0.4559132503       -0.2126103789
 O        -8.6999100002        0.3917466810       -0.6736512888
 C        -7.0311389670        1.7745992151        0.4608041051
 C        -7.7472575903        2.8148114857       -0.6048155167
 O        -8.9184733193        2.8582936541       -0.8885253387
 C        -6.7780256523        3.5054793542       -1.5383466952
 C        -7.2090465031        4.9429576063       -1.9889671325
 C        -6.5028446551        5.9010083592       -1.0669566664
 O        -6.2419639979        5.6458676836        0.1112975341
 C        -6.1842312893        7.3824084320       -1.5503002067
 C        -7.4873021054        8.2749043210       -1.4821615406
 O        -8.4435555744        7.8551837673       -0.9388704508
 C        -7.3482885104        9.7294582949       -2.0015950270
 C        -8.3435426275       10.1620102777       -3.0487972648
 C        -9.7098735620       10.7214707043       -2.5595909651
 O       -10.6057536423       10.0433802039       -2.1193599596
 C        -9.6555718676       12.2655472443       -2.5085297408
 C        -9.2863688658       12.6648127925       -4.0653901138
 O        -9.9362086276       12.1541774793       -4.9717586712
 C        -8.2455663278       13.7225470094       -4.4057666134
 C       -11.0444797391       12.9075754303       -2.2676785823
 C        -8.6001764731       12.9033568198       -1.5740910574
 C        -5.2137523982        8.0712938974       -0.5726217132
 C        -5.3406298181        7.2766914528       -2.9810886391
 C        -7.5497378262        2.1400051868        1.8749269018
 C        -5.4994010051        1.7654658059        0.5550099694
 C       -10.2907000638       -4.3378707940       -1.3525930639
 C        -9.8353981217       -2.5160026136       -3.1011648361
 C       -12.7716177014       -2.7570211367        2.9489581448
 C       -15.3075473844       -2.0389864253        2.4527947677
 C       -10.3288224664        4.3559983059        1.9165201052
 C       -12.2714030522        4.7381658228        3.6523820114
 H       -14.6815604401        4.6842738600        1.1543812655
 H       -13.5857053431        5.5980874410       -0.1742744830
 H       -13.6699172105        6.0676223927        1.5693974431
 H       -13.4847743756        2.0861862412        3.0429130039
 H       -12.7018711103        2.5061123291        4.5270599924
 H       -11.9580453481        0.2541404106        4.7574582713
 H       -11.4561102237        0.3547459523        3.0544473228
 H       -14.1641858009       -0.9790892510       -0.8342155286
 H       -14.3511244708       -2.3877560741        0.3021908064
 H       -12.6821292748       -3.2679747349       -1.1379328227
 H       -11.8503298473       -3.0037527928        0.4502683197
 H        -7.5442410708       -1.5136571345       -2.3141528603
 H        -6.9130452217       -2.8063973698       -1.5010220153
 H        -5.7336894702       -0.5738942828       -0.7662677390
 H        -6.6121092187       -1.2774738190        0.6563603122
 H        -6.5896556367        2.8462851110       -2.4143128288
 H        -5.8184900699        3.6197112096       -1.2657532213
 H        -8.2858937643        4.9855547579       -2.1913019379
 H        -6.8703334000        5.1650025202       -3.0023078574
 H        -6.3710809994        9.9538976870       -2.4393342842
 H        -7.3748374894       10.3442285373       -1.1187411625
 H        -8.5640347150        9.2656345245       -3.6542057532
 H        -7.6537824461       10.8360963215       -3.6192597415
 H        -8.6213105441       14.2642420008       -5.2610286516
 H        -7.3484187603       13.2491971894       -4.8989443117
 H        -7.8112633609       14.3998528794       -3.6503023356
 H       -10.9586381439       14.0241160517       -2.0363536954
 H       -11.6595348645       12.5994713200       -1.3748996528
 H       -11.9535153402       12.8360558075       -2.9431786848
 H        -8.4993880020       13.8839685342       -2.0808972733
 H        -7.7923470793       12.2764823591       -1.5425642577
 H        -8.8649378415       13.0742771156       -0.5280275931
 H        -4.8713396449        9.0379929932       -1.0033910628
 H        -4.3235595483        7.4640971178       -0.3255462792
 H        -5.7150354947        8.2181608562        0.5146998087
 H        -5.1255022266        8.1862812383       -3.4864444014
 H        -5.9890318484        6.6548390187       -3.6482587014
 H        -4.4388353707        6.8652727699       -2.7855323244
 H        -6.9290455548        2.0456571518        2.7638546798
 H        -8.3084231548        1.4386343374        2.0385182906
 H        -8.0280477379        3.0220410852        1.8954473312
 H        -5.1230695931        2.7750886428        0.7778015069
 H        -4.8505636613        1.4679966516       -0.2565542396
 H        -5.2229209227        1.0223725914        1.3065173883
 H       -10.7584930269       -4.4235140912       -0.3881042959
 H        -9.3583777783       -4.8073487739       -1.3111629935
 H       -10.9565887943       -4.7073248644       -2.0801398537
 H       -10.7724511301       -2.9176994503       -3.5549340697
 H        -8.9847661296       -2.9997735764       -3.5564237669
 H        -9.8214385708       -1.4474618752       -3.3133896935
 H       -11.7425814400       -2.4863760355        2.9056842087
 H       -12.7903172680       -3.5352213200        2.2014088929
 H       -13.0681356115       -3.1595915828        3.8760761255
 H       -15.7079899766       -2.7948119953        3.1424504779
 H       -15.5199058461       -2.3889399055        1.4608286110
 H       -15.9517277497       -1.1500331100        2.6041592422
 H        -9.9986487303        3.7981764313        1.0380141032
 H        -9.5674973136        4.1386216749        2.6654788759
 H       -10.1534180681        5.3509575542        1.6064058942
 H       -11.6465451636        4.5871065879        4.5676286439
 H       -13.2210264704        4.3689792857        3.8748848473
 H       -12.3334106318        5.8255466465        3.3262621278
 Na      -10.6237731204        1.3331512053       -0.4226171213
