117

 C        -6.6723116814        0.8635239387       -5.6518574904
 C        -6.5698142490       -0.4706561042       -4.9629594988
 O        -5.7506838478       -0.6902436542       -4.0966216884
 C        -7.5692450520       -1.7719509351       -5.4626135316
 C        -8.9448604920       -1.3203198323       -5.0120649939
 O        -9.3875756649       -0.3047480870       -5.5112845421
 C        -9.6220613673       -1.9630773767       -3.7297355615
 C       -10.9937493419       -1.2616790357       -3.5920400506
 C       -11.0114018848       -0.1813663293       -2.5323580761
 O       -10.8025309916       -0.3962280953       -1.3268640521
 C       -11.2454351444        1.4025920835       -3.0227249967
 C        -9.9243075856        2.3199260665       -2.6444296982
 O       -10.0385566934        3.5142915090       -2.4949792247
 C        -8.5601111106        1.6092662727       -2.5651456872
 C        -7.5679848836        2.3308148578       -1.7240209903
 C        -8.0514425714        2.6238726486       -0.3413106863
 O        -8.3825303546        3.8088460360       -0.1342538406
 C        -7.8731380660        1.6272757249        0.7741721085
 C        -8.9437766025        1.9422988350        1.8892378380
 O        -8.9155422942        3.0330922802        2.4702831771
 C       -10.0432874914        0.9062096269        2.1319829323
 C       -11.2077606689        1.4312207916        2.8753210154
 C       -12.2104534514        1.9346370997        1.8640243236
 O       -12.5037051292        1.3663366531        0.8803200485
 C       -12.8751029585        3.3533081097        2.0895362005
 C       -11.8556163671        4.3827213836        1.5005036039
 O       -11.0627411553        4.8858660890        2.3038865106
 C       -11.7955282191        4.7842363226        0.0162396700
 C       -12.1340705263        6.3305233051       -0.2590576173
 C       -11.0017609230        7.3110085287       -0.2019295973
 O        -9.8631865671        7.0142413659        0.0252598313
 C       -11.3407588570        8.8180550223       -0.4685006516
 C       -11.0686555896        9.4839055280        0.9131533537
 O       -11.9874679647        9.8014231312        1.6575891878
 C        -9.6458069853        9.5253183009        1.4326741113
 C        -9.5237848030        9.5589806425        2.9804717913
 C        -9.5525671572        8.1401014235        3.4348459724
 O       -10.1507098129        7.2461361252        2.8699342267
 C        -8.6651567700        7.6524346321        4.6392789974
 C        -7.2845008894        7.3482210316        3.9205834879
 O        -7.2556942203        6.5813548406        2.9490404094
 C        -5.9387279105        7.9324279612        4.3799656302
 C        -8.5419634616        8.5951822831        5.8344851359
 C        -9.2636613001        6.2994937799        5.0720019512
 C       -10.4533806293        9.3180883541       -1.6617332600
 C       -12.8384190992        9.1769341032       -0.8323588561
 C       -14.2320421651        3.4017979852        1.4009704696
 C       -13.1799165287        3.6500222274        3.5473872653
 C        -7.8948150881        0.0629558085        0.2401669906
 C        -6.4539518475        2.0328046681        1.2064950122
 C       -11.6426023744        1.5332811015       -4.5144260462
 C       -12.3358756000        2.0566698533       -2.1566987915
 C        -7.5333599276       -2.0191547563       -6.9264872275
 C        -6.9623371310       -2.9793753961       -4.7263235281
 H        -7.7012934062        1.1360202546       -5.8517891675
 H        -6.1996866994        0.7551292360       -6.6544277243
 H        -6.0610069828        1.6394821254       -5.1473461873
 H        -8.9350184360       -1.8958311883       -2.8680510604
 H        -9.7402479057       -3.0222882917       -3.8894110787
 H       -11.8437612707       -1.8588849643       -3.2961977563
 H       -11.1642039647       -0.8537278163       -4.5688352105
 H        -8.1466205018        1.4635906989       -3.5887596510
 H        -8.6365251096        0.5666678669       -2.2195140895
 H        -7.3679119709        3.2588442587       -2.2758490118
 H        -6.6107873893        1.7653286926       -1.8415557994
 H        -9.6168446711        0.0822717428        2.7473060601
 H       -10.3953815117        0.3144169054        1.2817852979
 H       -10.9193320423        2.3117710661        3.4107212950
 H       -11.7358085223        0.6416413153        3.4213364799
 H       -12.4207156068        4.0816549636       -0.6005389835
 H       -10.7329267958        4.5008394547       -0.2956026465
 H       -12.9589813642        6.6112561514        0.4153582436
 H       -12.5774837079        6.4377896814       -1.2421083704
 H        -9.1625779532       10.3733458461        0.9310964753
 H        -9.0423415728        8.6604469794        0.9903571112
 H       -10.4221781271       10.0323085223        3.3415184181
 H        -8.5838864876       10.1074591819        3.1683929843
 H        -5.8958079169        8.6612082141        5.2139018519
 H        -5.4756230402        8.4599332030        3.5386477915
 H        -5.1313069872        7.2239150709        4.5933771770
 H        -7.6903771499        8.3558650254        6.5423329838
 H        -9.4941282823        8.5805343156        6.4217094498
 H        -8.2604739339        9.6413390885        5.5263917002
 H        -9.2485034520        5.6566706377        4.1758772524
 H       -10.2264676540        6.4745286210        5.5982162969
 H        -8.5225814447        5.9151255037        5.8018294424
 H       -10.0302244424        8.4920550299       -2.2104011237
 H        -9.5509797199        9.7982066854       -1.2536976456
 H       -10.9148288011       10.1024566040       -2.2273233661
 H       -12.9982551532       10.1276237346       -1.2533181392
 H       -13.4686323669        8.9541337422       -0.0215738184
 H       -13.2123161028        8.4774206891       -1.6247239070
 H       -14.2419469407        3.0188054856        0.4036063476
 H       -14.4403607910        4.4272861853        1.2032914546
 H       -15.0666146740        2.9599633394        1.9218008019
 H       -12.3004208042        3.8821044554        4.1596089371
 H       -13.6535444766        2.7987578787        3.9514936377
 H       -13.8491100451        4.5310005990        3.5833481402
 H        -7.5690835165       -0.7060271040        1.0028762516
 H        -7.2584302333       -0.0200533033       -0.6655542174
 H        -8.9708429337       -0.1262218112       -0.0387414135
 H        -6.2302298478        1.2787333487        1.9669470764
 H        -6.3892067285        2.9958692944        1.7340850753
 H        -5.6745316087        2.0443933537        0.4096889409
 H       -10.7187432235        1.5517074482       -5.1710249355
 H       -12.2728509935        2.4694131826       -4.7412545059
 H       -12.2756441842        0.7568480082       -4.9307288089
 H       -12.3147285549        3.0813895207       -2.3481087433
 H       -12.2069838467        1.8569423936       -1.0647146341
 H       -13.3579184185        1.7047335406       -2.3451313275
 H        -8.0612541630       -2.9555564218       -7.1055331460
 H        -6.4759153423       -2.0716288680       -7.1558055071
 H        -8.0552711761       -1.2550416613       -7.5026088748
 H        -5.8854902003       -3.0469945564       -5.0309600000
 H        -7.4822968450       -3.9208665158       -4.8882814715
 H        -6.8625262142       -2.8925200486       -3.6325919541
 Na       -8.9323588461        5.3463836322        1.6422523897
