117

 C        -6.1109444514        0.5484641775       -5.7546758436
 C        -6.2840999256       -0.6906326482       -4.8710517175
 O        -5.7610294976       -0.8297752549       -3.8040882146
 C        -7.3840761496       -1.8055975919       -5.2668467651
 C        -8.8734924756       -1.3448408300       -4.9526515868
 O        -9.5077599649       -0.6351266557       -5.6900261850
 C        -9.5025367088       -1.9632939870       -3.7173194102
 C       -10.9752094009       -1.4618982164       -3.4499160537
 C       -11.0510140135       -0.2250834265       -2.6340873402
 O       -10.8521740742       -0.3592727799       -1.4070939438
 C       -11.4971555470        1.2312363280       -3.0653157281
 C       -10.4664993571        2.2419003642       -2.6076958811
 O       -10.8714450134        3.3140213417       -2.1831460860
 C        -8.9613293022        1.8456895156       -2.7235110846
 C        -7.8957404198        2.4841666633       -1.8676573226
 C        -8.2366194928        2.8216306363       -0.3744861297
 O        -8.3783659966        4.0081719494       -0.0157080469
 C        -8.0448521485        1.7256392803        0.6965352281
 C        -9.1652619221        1.9961459195        1.8423671121
 O        -8.9910771760        3.0075822380        2.5084932388
 C       -10.2673063025        1.0020774076        2.1284709645
 C       -11.4097539343        1.6591987908        2.8444537856
 C       -12.5348119344        2.1537617436        1.8572079222
 O       -12.8920613074        1.4662419116        0.9187764164
 C       -13.0094547045        3.6457258022        2.0976311220
 C       -11.7147997406        4.4828797898        1.6906107381
 O       -10.9482179409        4.8047826627        2.5843697511
 C       -11.4405928567        4.6298570650        0.2536909092
 C       -11.8007031271        6.0832361680       -0.1762498442
 C       -10.7103087195        7.1859063683       -0.1513499382
 O        -9.5397770402        6.9520733122        0.0010862983
 C       -11.1982599360        8.7246259668       -0.4133598087
 C       -11.0471763126        9.4863372873        0.9211212959
 O       -12.0726579097        9.8626300516        1.5077652385
 C        -9.6625896410        9.8673015171        1.4209910121
 C        -9.3696591023        9.6807914573        2.9260537929
 C        -9.3822030961        8.2141246506        3.2212784651
 O       -10.0159580802        7.4149851057        2.6153101277
 C        -8.4565732358        7.7277088481        4.3859953182
 C        -7.0224079171        7.3138095131        3.7439411970
 O        -6.9333625138        6.2636463040        3.1208566299
 C        -5.7982444563        8.2289205725        3.9626759477
 C        -8.2424967685        8.8783704739        5.4619108372
 C        -9.0988964600        6.4155457454        4.9765148696
 C       -10.1591345610        9.2875136338       -1.4264776988
 C       -12.6181083667        8.8194741312       -0.8739779073
 C       -14.2229459674        3.8341373396        1.1843259180
 C       -13.3855706509        3.9519339526        3.5435864571
 C        -7.9421624556        0.2298456745        0.1433919443
 C        -6.7190178370        2.0756754519        1.4188664120
 C       -11.6962099425        1.4355466947       -4.5616123451
 C       -12.8881226401        1.3769533758       -2.3873677079
 C        -7.1940210018       -2.0756390339       -6.8308677759
 C        -6.9473970275       -3.0763785561       -4.4680457149
 H        -6.9275259682        0.6918237919       -6.4461439936
 H        -5.2875179282        0.4655295955       -6.3690863558
 H        -5.9965174031        1.3709956399       -5.1412646909
 H        -8.9768139706       -1.9304324237       -2.7559806293
 H        -9.6772266250       -3.0302869490       -3.7952201802
 H       -11.4885598519       -2.2523741943       -2.9842225916
 H       -11.4518057731       -1.2053849277       -4.3952689735
 H        -8.7130619751        1.9370358941       -3.7548845701
 H        -8.8781217047        0.7665499939       -2.5148167899
 H        -7.6266082320        3.4175374110       -2.4064054838
 H        -7.0146681737        1.7406501016       -1.8862763307
 H        -9.8760839517        0.2069893858        2.8514067630
 H       -10.5440275205        0.4624935673        1.1785589365
 H       -10.9964367798        2.4510755033        3.4378552034
 H       -11.9304889238        0.8763215304        3.4224648411
 H       -12.1685999006        3.8970756039       -0.1791031736
 H       -10.3946694201        4.4033514765       -0.1023291042
 H       -12.7401301173        6.4348886282        0.2209249368
 H       -12.0367787929        6.0008083894       -1.2078093460
 H        -9.5416667848       10.9070176652        1.0788074495
 H        -8.9369182681        9.1663640939        0.8419639330
 H       -10.2166256927       10.1885721686        3.4468885577
 H        -8.3222091089       10.0994030493        3.0604185895
 H        -5.7623457527        8.7359619666        4.9223100866
 H        -5.7788106797        8.9321795546        3.1932342537
 H        -4.8218607521        7.8136182484        3.7416525668
 H        -7.6559923746        8.6656913177        6.3348183858
 H        -9.2292790247        9.0457505379        5.8434386869
 H        -7.8999323433        9.7315460213        4.9191326597
 H        -8.3305518752        5.6477007319        4.9615397072
 H       -10.0038704930        6.1964171657        4.3876226449
 H        -9.4447167375        6.5748580153        5.9853626002
 H       -10.6091096037        9.4448737694       -2.4091703362
 H        -9.3073124092        8.6295990868       -1.5989774691
 H        -9.8586160619       10.2491051150       -1.0325355632
 H       -12.7972897816        9.8222892918       -1.1097039461
 H       -13.3595031130        8.4081580638       -0.1997882852
 H       -12.7530708693        8.2169513232       -1.7954308414
 H       -14.0046081436        3.6448829575        0.1460299599
 H       -14.6659981145        4.8182081011        1.2169604539
 H       -15.0796279098        3.1898748152        1.4074706833
 H       -12.5459913324        3.7556549358        4.2028018212
 H       -14.1044397730        3.1950314153        3.8626907173
 H       -14.0425787888        4.9128111436        3.6823050587
 H        -7.5886923403       -0.5100584723        0.8441594664
 H        -7.1847585539        0.1573778568       -0.6635279017
 H        -8.9309884875       -0.1357149775       -0.1526991557
 H        -6.6901317423        1.2228081487        2.1024798968
 H        -6.5375606437        3.0113106636        1.8470212075
 H        -5.8952692795        1.9968902924        0.7029996520
 H       -11.0074831277        0.7700332864       -5.0792500679
 H       -11.4912346400        2.4758926629       -4.8728227378
 H       -12.6575550633        1.0776603894       -4.9179837508
 H       -13.4060153351        2.2543805428       -2.6338092901
 H       -12.7721940048        1.3020841714       -1.2796492566
 H       -13.5704912587        0.6269371938       -2.7818894249
 H        -7.7113472214       -3.0109176363       -7.1148358647
 H        -6.1325247550       -2.1703536078       -7.0108306359
 H        -7.5740289289       -1.2363018820       -7.4174639068
 H        -5.9261414092       -3.4295766429       -4.7057716408
 H        -7.5671698539       -3.9629062435       -4.5868169461
 H        -6.9275105609       -2.8897335360       -3.4001655380
 Na       -8.8626035742        5.3093526938        1.8968375320
