117

 C       -13.6557473262        5.1801318688        1.0136440600
 C       -12.5562215564        4.1373092318        0.9738466914
 O       -12.1799060707        3.5349899024       -0.0173180556
 C       -11.6997858062        3.9567185733        2.3147963524
 C       -11.6300824610        2.4644460768        2.5446422438
 O       -10.7874698751        1.7420976113        2.0084495661
 C       -12.4721156801        1.8200368261        3.6390192379
 C       -12.2727890965        0.2422147612        3.7570259049
 C       -13.7022070890       -0.3668960952        3.7653894870
 O       -14.5888575460       -0.1129458909        4.5869577305
 C       -13.8982727104       -1.3182735655        2.5073266693
 C       -13.5400221251       -0.6853070466        1.2386702884
 O       -13.3061889762        0.5213323448        1.2098667928
 C       -13.7219146878       -1.5082931288       -0.1185916129
 C       -12.4075404817       -2.5118955256       -0.3548041858
 C       -11.1734727527       -1.8437978727       -0.9985737537
 O       -11.0301521334       -0.6472091650       -1.2834208848
 C       -10.0285832746       -2.8766555394       -1.5916971165
 C        -8.6223751765       -2.6915162413       -0.7042493206
 O        -8.7546894652       -3.0926710105        0.4596015707
 C        -7.3126012754       -1.9070365000       -1.2954280926
 C        -6.7058208732       -0.9857287465       -0.2022682353
 C        -7.5573834455        0.3223158238       -0.0387161209
 O        -8.6122895522        0.2405051058       -0.6670326471
 C        -7.0811092055        1.7270103279        0.4943186466
 C        -7.6538118181        2.7656778445       -0.5862168401
 O        -8.8684158280        2.8872851045       -0.6747384659
 C        -6.6863476069        3.5484057825       -1.4683068564
 C        -7.1073154002        4.9222782346       -1.9293525809
 C        -6.4850126616        6.0206759620       -1.1149794828
 O        -6.2100699389        5.7075136229        0.0413684090
 C        -6.1633515721        7.4764205044       -1.6725728549
 C        -7.4147348463        8.4090085903       -1.4891422401
 O        -8.4843184773        8.0685842980       -1.0413335573
 C        -7.2794767686        9.8983081428       -1.9777128049
 C        -8.3927907949        9.9510762780       -3.1372859792
 C        -9.6079944134       10.6681310671       -2.5410368528
 O       -10.6354699937       10.1437801593       -2.2138527224
 C        -9.5252449798       12.3331484797       -2.7505837486
 C        -9.2265819308       12.6232250050       -4.2080049445
 O        -9.9106840880       12.0851628614       -5.0866860102
 C        -8.1119107950       13.6437688388       -4.5057628381
 C       -10.9142859817       12.8377522262       -2.4604761743
 C        -8.5069432162       12.7666639226       -1.6269674695
 C        -5.1511478709        7.9379532788       -0.5504968696
 C        -5.6518145357        7.5621309497       -3.0737492166
 C        -7.5605137900        2.2223090379        1.9286241392
 C        -5.5039941726        1.6851374892        0.5080599746
 C       -10.3736232683       -4.3086485760       -1.3674187712
 C        -9.8341193621       -2.5167608358       -3.0465177508
 C       -12.9983093842       -2.5472190341        2.8813662657
 C       -15.3063753032       -1.7877796221        2.5988069550
 C       -10.1922282600        4.5194882076        2.1027583245
 C       -12.2566522752        4.5778292001        3.5270946678
 H       -14.2128098806        4.9958412098        1.9295494548
 H       -14.1352577785        5.2907102996        0.0304069401
 H       -13.0687349248        6.1107582722        1.2061901348
 H       -13.4835077835        2.1059677867        3.5672734127
 H       -12.2284255068        2.3269897359        4.5469201984
 H       -11.7622104563        0.0757231864        4.7876502712
 H       -11.5829461045        0.0498186500        2.9909206506
 H       -13.8490337776       -0.8902517506       -0.9883981571
 H       -14.6198795332       -2.1035291017        0.0557570777
 H       -12.7636396479       -3.3359482908       -1.0514566634
 H       -12.0184077646       -2.9877492545        0.5645326879
 H        -7.7658877286       -1.3239635709       -2.1121340200
 H        -6.5515607612       -2.5396071023       -1.7461261309
 H        -5.6558589942       -0.5131898678       -0.4781857919
 H        -6.7071132121       -1.4465515826        0.8217500985
 H        -6.5709260927        3.0987783978       -2.3887411840
 H        -5.6190900584        3.5577670120       -1.1893137749
 H        -8.1827470845        4.8655758740       -1.8524356093
 H        -7.1596975446        5.0030501626       -3.0023435876
 H        -6.2607568618       10.2586603378       -2.3322045546
 H        -7.5099609540       10.4757189408       -1.0859105979
 H        -8.5715324386        8.9180605442       -3.3660362522
 H        -7.9531954485       10.4396611403       -4.0322385892
 H        -8.2437362691       13.9171838304       -5.5622769075
 H        -7.0101169524       13.2056207123       -4.5520439560
 H        -8.0608730072       14.4977789638       -3.8764960031
 H       -11.0208735911       13.8502021920       -2.7125440880
 H       -11.1263738345       12.8959797543       -1.4638221183
 H       -11.7932410248       12.3561061050       -2.7422151179
 H        -8.8261245967       13.8223561825       -1.3288653903
 H        -7.4641450093       12.4167478086       -1.9334432843
 H        -8.6577024533       12.0851073899       -0.8341990455
 H        -4.5255293289        8.9063543134       -0.7658993239
 H        -4.5586845609        7.1487479214       -0.0968119398
 H        -5.8164950583        8.1141927308        0.2885136948
 H        -5.5972840823        8.6035395890       -3.3010923853
 H        -6.2401033424        7.0731125577       -3.8030226749
 H        -4.5439978489        7.2618043493       -3.0543741492
 H        -6.6453579125        2.3419996611        2.5532450679
 H        -8.2151901776        1.6661795798        2.5483405074
 H        -8.0268412591        3.2322465461        1.8520962191
 H        -4.8555493188        2.5663620444        0.2897463572
 H        -5.1765767541        1.1288456970       -0.3493677937
 H        -5.1174088790        1.0465005543        1.2787538085
 H       -10.2376209339       -4.4306943537       -0.3469357608
 H        -9.5470572540       -4.8189061665       -1.7619491158
 H       -11.3078238523       -4.6799812327       -1.7042460433
 H       -10.7615818646       -2.8200870991       -3.5595990245
 H        -8.9588065624       -3.0804461364       -3.5966841844
 H        -9.7377754985       -1.4199911537       -3.1199317795
 H       -12.0650548092       -2.4010163137        3.3545427509
 H       -12.6565327805       -2.9490440214        1.9912328212
 H       -13.5859545319       -3.3496503329        3.3929713742
 H       -15.4231767566       -2.6110335477        3.3529634828
 H       -15.7705556944       -2.1450050351        1.6433959092
 H       -15.8717285832       -1.0515243562        3.0575268434
 H        -9.5791849653        4.0632625198        1.2583336468
 H        -9.5240303734        4.4373061466        2.9799332712
 H       -10.1542779759        5.5506776977        1.8870137414
 H       -11.6532547478        4.3702290057        4.3560942027
 H       -13.1543611684        3.9764133021        3.7201273466
 H       -12.4762914940        5.6376176368        3.3768765019
 Na      -10.8199363260        1.3929087440       -0.3438439001
