117

 C        -5.7497346721        0.0793616734       -5.7251121547
 C        -6.3017007222       -0.8088660089       -4.6792305100
 O        -6.1735017071       -0.5103819091       -3.5137119690
 C        -7.2329521885       -1.9519493839       -5.1774113467
 C        -8.7615238059       -1.4552381096       -4.9064492658
 O        -9.2748898174       -0.7082505210       -5.6816081880
 C        -9.5749550711       -2.0240772831       -3.7658602019
 C       -11.0627181543       -1.6388231918       -3.5309548077
 C       -11.0952848771       -0.4558416841       -2.6321955731
 O       -10.7432618834       -0.5972225077       -1.4689258285
 C       -11.6611570747        0.9343270331       -3.1779798230
 C       -10.6681752673        2.1027743535       -2.6176990993
 O       -11.1130007833        3.1351898909       -2.1303140009
 C        -9.1552425938        1.7936941874       -2.6830228972
 C        -8.2886335382        2.8536822762       -1.9239034251
 C        -8.2319403626        2.9733926162       -0.3966039606
 O        -8.0616102502        4.1504178702       -0.0150351090
 C        -8.1159018098        1.8861987265        0.6796914031
 C        -9.2076013803        2.1530944679        1.7676712663
 O        -9.0883656616        3.0497554261        2.6093335646
 C       -10.3766653724        1.1501956352        1.8281033394
 C       -11.5197487888        1.6131273075        2.6864593571
 C       -12.7226179541        2.2169646756        1.8681542628
 O       -13.2558598319        1.5475235310        1.0254775859
 C       -13.1693703233        3.7068780676        2.1894281841
 C       -11.8021825344        4.5420050966        1.9572955137
 O       -11.0213715768        4.8350018942        2.8678363767
 C       -11.4827687137        4.7733675972        0.4659900747
 C       -11.9292047157        6.1864343327        0.1215657883
 C       -10.6927086174        7.1379374731       -0.0739665947
 O        -9.5580076585        6.7942603275        0.1290393089
 C       -10.9066938695        8.6451092727       -0.5582225094
 C       -10.8118731966        9.4693889312        0.8988359310
 O       -11.8262728032        9.4692840741        1.6139304212
 C        -9.5415789025       10.1783546500        1.4712607352
 C        -9.2877434651        9.9337593657        2.9787036744
 C        -9.2415962615        8.4563687756        3.2234012993
 O        -9.7937568908        7.6927050998        2.4656805189
 C        -8.2872851703        7.8312048373        4.3581455953
 C        -7.0032025881        7.3305254184        3.5688963355
 O        -6.9829405934        6.3525458559        2.8775566126
 C        -5.7705186563        8.1668196723        3.6659011566
 C        -7.9485342717        8.9503114804        5.3936105255
 C        -8.9330188979        6.6362703641        5.0516120117
 C        -9.9924378092        9.1235290484       -1.7093376252
 C       -12.3797548132        8.8235842140       -1.0699034562
 C       -14.3018701868        4.0465672696        1.2280299217
 C       -13.7549895685        3.9753343709        3.5830386397
 C        -8.1633733217        0.4362080540        0.0026140334
 C        -6.7128052277        2.0349924721        1.3912486737
 C       -11.5268525001        1.0689120940       -4.6875844115
 C       -13.0546985013        1.2378277663       -2.6017595109
 C        -7.0682812238       -2.1769269942       -6.6889144397
 C        -6.8585702127       -3.2838589051       -4.4326343381
 H        -6.6011514104        0.7676862608       -6.0446517879
 H        -5.4461720869       -0.3924463038       -6.6941441657
 H        -4.9893627302        0.7656572345       -5.3009774128
 H        -9.0791131968       -1.8812726307       -2.7798388894
 H        -9.7385760209       -3.0915500703       -3.6880797239
 H       -11.5804061593       -2.5349840826       -3.0364264951
 H       -11.5115583543       -1.4176110497       -4.5041880981
 H        -8.8778905165        1.8952614867       -3.7620471792
 H        -8.9764246120        0.7984990605       -2.3664480929
 H        -8.7737474746        3.7416376149       -2.2682286762
 H        -7.2654831421        2.7380936908       -2.2355522169
 H        -9.9387245295        0.2757372787        2.3135440305
 H       -10.8112273871        0.8966567521        0.8935646663
 H       -11.2052238031        2.2289346161        3.5422234427
 H       -11.9109100167        0.6395021984        3.0207919729
 H       -12.1304502503        4.1778739394       -0.1205432115
 H       -10.4465979665        4.6495105998        0.2511965190
 H       -12.6627380350        6.6412070426        0.7902036069
 H       -12.5356430547        6.0615018094       -0.8347827590
 H        -9.5942050207       11.2302802645        1.3922037433
 H        -8.6893951709        9.7746593804        0.9425399432
 H       -10.1035075112       10.3587926140        3.5221219532
 H        -8.3507269219       10.5048181506        3.1326784007
 H        -5.0833448880        7.7906036066        4.4474132629
 H        -5.8210856417        9.2498466397        3.8028421225
 H        -5.2781204959        8.1353446895        2.6911138839
 H        -7.4975429296        8.4304496319        6.2635623376
 H        -8.8996639425        9.3633761466        5.7305690309
 H        -7.3450918796        9.7603605930        4.9446733783
 H        -8.2570865321        6.3383819497        5.8652136551
 H        -9.1488191853        5.8040481734        4.3817756006
 H        -9.8491773632        7.0115270978        5.5126004415
 H        -9.7813416879        8.2730269028       -2.3719918578
 H        -9.0530770755        9.5132012666       -1.2667805068
 H       -10.5177135146        9.8323621723       -2.3563222642
 H       -12.6556320172        9.8655519341       -1.2953227468
 H       -13.1199751261        8.4723727429       -0.3168729466
 H       -12.4196488116        8.0814750700       -1.9906568782
 H       -14.2259952292        3.5809466595        0.2411262403
 H       -14.4082597134        5.1102842181        1.0649033778
 H       -15.3107732666        3.7828243169        1.5672714170
 H       -13.0148185318        3.8970155222        4.3641018646
 H       -14.5585884948        3.3636847717        3.8619603012
 H       -14.1436993380        5.0581285541        3.6537573477
 H        -8.2462502331       -0.3298498778        0.7929053689
 H        -7.3698453673        0.1147126598       -0.6311715639
 H        -9.1101009488        0.3675167307       -0.5442473296
 H        -6.5121280922        1.2143667975        2.0767571873
 H        -6.4964361626        3.0174866398        1.8343292219
 H        -6.0051178948        1.9280715776        0.5370482704
 H       -10.4803600461        0.9428418182       -4.9611192701
 H       -11.8506940845        2.0446921270       -5.0748043095
 H       -12.0422858276        0.3095520604       -5.1765282715
 H       -13.4055760777        2.2280670436       -2.8191315392
 H       -12.9668371682        1.2187427179       -1.4758028452
 H       -13.8219277259        0.6142099495       -3.0464938287
 H        -7.6933839592       -3.0277277527       -6.8652638354
 H        -6.0798175566       -2.5990427953       -6.8832575347
 H        -7.2968631791       -1.3315365870       -7.3389018190
 H        -5.9421310402       -3.7159778926       -4.8797846425
 H        -7.4796266423       -4.1072090916       -4.7349439870
 H        -6.7526069491       -3.3382930111       -3.3617600497
 Na       -8.8024917067        5.3080940679        2.0042219318
