117

 C        -5.0139399346       -0.5630390696       -4.9213270166
 C        -6.3690409679       -0.8763107576       -4.3474685586
 O        -6.8848212509       -0.2347971806       -3.4612585938
 C        -7.1482729090       -2.0749643690       -4.8344576903
 C        -8.7473538813       -1.8623471265       -4.8276290109
 O        -9.2181899509       -1.0864541248       -5.6130716139
 C        -9.6763561682       -2.6250858498       -3.9325637313
 C       -11.0504679058       -1.8853198786       -3.7130993598
 C       -10.9148647368       -0.6627562393       -2.7478754175
 O       -10.3284488694       -0.7942613459       -1.7044339160
 C       -11.5870627189        0.7513026034       -3.1674225102
 C       -10.7839580657        1.8890662871       -2.3821991699
 O       -11.2504706678        2.5436769769       -1.4532392970
 C        -9.3246246265        2.0538974444       -2.8771854302
 C        -8.1816841314        2.7711777582       -2.0824365655
 C        -8.5144216380        3.0252101108       -0.6105015842
 O        -9.0111864768        4.0886458589       -0.2821228133
 C        -8.2156889318        1.9644963143        0.4730142985
 C        -9.5079498178        2.1446253598        1.5290314937
 O        -9.5155440879        3.0966733040        2.3233740242
 C       -10.7234428960        1.1725718715        1.4358267306
 C       -11.8563031263        1.4692981078        2.4677644761
 C       -13.0171712378        2.3305032770        1.8224461903
 O       -13.7176687091        1.7990040541        1.0134588289
 C       -13.4030979176        3.7620007426        2.3842502375
 C       -12.2108250347        4.7051588322        1.9115457661
 O       -11.3553706248        5.0301896812        2.7185768382
 C       -12.0818256624        5.1746299601        0.4786550221
 C       -11.9106488314        6.6948143453        0.4465863748
 C       -10.6720101178        7.2668924908       -0.1697938296
 O        -9.5946981658        6.6523994694       -0.2533264531
 C       -10.6047131242        8.7935609248       -0.5941896745
 C       -10.6425615908        9.6730447925        0.7467590615
 O       -11.6646117571        9.6734609005        1.3629177606
 C        -9.4144080269       10.3242385064        1.3937347971
 C        -9.3249797959        9.9211894406        2.8648257733
 C        -8.9435563216        8.4988007574        3.1924371746
 O        -9.6413551974        7.6065762439        2.7394258622
 C        -7.8138756531        8.1549363350        4.2601762225
 C        -6.6274573116        7.4843449983        3.4269631621
 O        -6.9379805202        6.5551348593        2.7363952040
 C        -5.1846618031        7.9820276572        3.4852353325
 C        -7.3243457083        9.3164036985        5.1787670999
 C        -8.3272902700        7.0573546681        5.2378167486
 C        -9.3947694262        9.0200942708       -1.5029117177
 C       -11.9237292084        9.1775948932       -1.2708848172
 C       -14.7845690651        4.0906277904        1.8391656894
 C       -13.3506654334        3.7349436052        3.9024303146
 C        -8.0965084760        0.6200506411       -0.0969076538
 C        -6.9136826977        2.3345535695        1.2660839174
 C       -11.5711526596        1.0106270738       -4.6774073850
 C       -13.0839517627        0.8330533761       -2.7482095467
 C        -6.7957047346       -2.4386979473       -6.3442945815
 C        -6.8188686412       -3.3318889260       -3.9358816627
 H        -5.0950577634       -0.5893856757       -5.9622562186
 H        -4.2456822015       -1.3442411003       -4.7061840401
 H        -4.6632997839        0.4318820537       -4.6710870406
 H        -9.3613030130       -2.9268204160       -2.9349339931
 H        -9.9772081179       -3.5914264245       -4.3973711574
 H       -11.8037540839       -2.5817129562       -3.3138533325
 H       -11.3904384503       -1.6311792080       -4.6944698367
 H        -9.3447954593        2.4343145925       -3.8633332600
 H        -8.9649768363        1.0382821516       -2.9810021462
 H        -7.9932493978        3.7285011889       -2.6422756550
 H        -7.3166982397        2.0961691815       -2.2451218805
 H       -10.2562260318        0.1815069603        1.6321881080
 H       -11.0511378573        1.2330890177        0.3542353139
 H       -11.3620805627        1.7583634682        3.3986540140
 H       -12.2666744317        0.5233838957        2.7848682693
 H       -12.9954078368        4.9165087970       -0.0958539792
 H       -11.2158911703        4.6780926167       -0.0193593609
 H       -12.0155123569        7.0793303113        1.4790355896
 H       -12.6712171660        7.1294376067       -0.1568181386
 H        -9.5578997011       11.4364595268        1.2110116465
 H        -8.5305183263       10.0142667501        0.8399185050
 H       -10.3438612680       10.2391076442        3.2759214916
 H        -8.7129239746       10.7005901179        3.3558960931
 H        -4.9200568938        8.4253655150        4.4169965992
 H        -5.0363550989        8.8773385300        2.8142830573
 H        -4.5355516889        7.1660336838        3.3307605679
 H        -6.8834388257        8.8910056054        6.0629116597
 H        -8.2446061597        9.8428649700        5.3168703852
 H        -6.6032735604        9.9723008506        4.7176192115
 H        -7.6042515195        6.2982385328        5.4396861881
 H        -9.0819774779        6.4831887437        4.7368385746
 H        -8.6946298985        7.4670407777        6.1759160005
 H        -8.4840055076        9.1036226361       -0.8963827225
 H        -9.6325802659        9.9332804320       -2.0676543421
 H        -9.3039117394        8.1620152070       -2.1998319691
 H       -11.9181811646       10.1691536259       -1.8234561809
 H       -12.6653040723        9.1706565119       -0.4940104015
 H       -12.0202923723        8.4718829870       -2.1042809517
 H       -14.8590611568        4.1110320650        0.7428227235
 H       -15.1184249737        5.0817063395        2.1835058278
 H       -15.5215088064        3.3428041396        2.1150546462
 H       -12.2706830763        3.5875331114        4.2882710457
 H       -13.9509082128        2.8624411939        4.3043254533
 H       -13.6387571886        4.6445603862        4.4452626220
 H        -7.7423769112       -0.0620895303        0.6606567679
 H        -7.3374946217        0.6518766283       -0.8605783417
 H        -8.9444580836        0.2078853040       -0.6086590259
 H        -6.6454461583        1.5952355706        2.0088195751
 H        -7.2197029253        3.1938691701        1.9098475470
 H        -6.0132813183        2.4513381266        0.6642703954
 H       -10.5498243322        1.0879204188       -5.0122254947
 H       -12.0581653958        1.9197602591       -4.9010834797
 H       -12.0954141268        0.2480338108       -5.2000649062
 H       -13.5574772464        1.6974721896       -3.3008581274
 H       -13.1814259577        1.0716346959       -1.7055961975
 H       -13.5842000633       -0.1349755007       -2.7884919802
 H        -7.5351778257       -3.1414516731       -6.7279326687
 H        -5.7818135267       -2.8553404380       -6.4075475940
 H        -6.8856994965       -1.5735504413       -6.9969797744
 H        -5.8430713129       -3.7557233932       -3.9016356847
 H        -7.5312937641       -4.1249799679       -4.2084070249
 H        -7.0656450329       -3.2241897181       -2.8767134529
 Na       -8.9701944348        5.4195260125        1.9388772487
