117

 C        -4.8825846148       -1.0294789654       -4.1055289022
 C        -6.3739557844       -1.0311544556       -4.0479500241
 O        -6.9496771469       -0.1294184089       -3.4519788284
 C        -7.1709736823       -2.2899782681       -4.6667222833
 C        -8.7236729488       -1.9829890387       -4.8523890661
 O        -9.0301961770       -1.0945113692       -5.5796953100
 C        -9.7744712498       -2.7329977958       -4.0734285777
 C       -11.1098445774       -1.9598863344       -3.9176612769
 C       -10.9253677825       -0.8663739642       -2.8734019282
 O       -10.4639106099       -1.1276302465       -1.8054711915
 C       -11.5079599280        0.6656534121       -3.1538169383
 C       -10.4741469732        1.5764044870       -2.3842676555
 O       -10.6911853036        1.9949019151       -1.2286526434
 C        -9.1380625624        1.8281727934       -3.0270578833
 C        -8.3956176660        2.8574691768       -2.2372684957
 C        -8.8716922502        3.0672591563       -0.8028227934
 O        -9.2593429965        4.2079390331       -0.5720131337
 C        -8.5222313857        2.1257009505        0.4123109048
 C        -9.6709507865        2.0687027778        1.6351175687
 O        -9.7051245292        3.0060387900        2.4559097773
 C       -10.7739165458        0.9543912086        1.6320795642
 C       -12.0310817752        1.3881953270        2.3872675406
 C       -12.8563553724        2.4520390195        1.6816129649
 O       -13.3279446459        2.2264410010        0.5961880552
 C       -13.1635768623        3.8218022046        2.4100801028
 C       -12.1309940607        4.8753323659        1.9595715711
 O       -11.1529769938        5.0707549279        2.6801959488
 C       -12.3285952770        5.5869868134        0.6040314216
 C       -12.2588400378        7.1476060014        0.5177803152
 C       -10.8871774862        7.6084860726        0.0468149484
 O        -9.9058461705        6.9614440713        0.2982190378
 C       -10.7234217176        8.9805387412       -0.6306952897
 C       -10.6294308697        9.9395109112        0.6684170952
 O       -11.6238276733       10.4175334636        1.1983377459
 C        -9.2494581902       10.2091075693        1.2993685830
 C        -9.1804780241        9.9116830911        2.7726622219
 C        -8.9045271277        8.4774976790        3.1762897005
 O        -9.5393245945        7.5828114276        2.6784104330
 C        -7.6286644436        8.1085648028        4.1239143845
 C        -6.7024048015        7.2444270901        3.1649980509
 O        -7.1194862613        6.3481886303        2.5345121251
 C        -5.1915735560        7.4891610541        3.1706724973
 C        -6.9372679904        9.3165771040        4.7773120332
 C        -8.2459755783        7.1525699300        5.2387634113
 C        -9.3397576113        9.0498922925       -1.3533331025
 C       -11.8917270233        9.3061852089       -1.6409167351
 C       -14.6475449955        4.2094409223        2.0787511864
 C       -13.0738597099        3.7003695497        3.9689123333
 C        -8.1563459302        0.7101628874       -0.0135473747
 C        -7.2202026844        2.7616274706        0.9951469804
 C       -11.7658023751        0.9737892769       -4.6632889154
 C       -12.8305315542        0.8322328374       -2.3787305134
 C        -6.7596888717       -2.6941966795       -6.0860780188
 C        -7.0224915695       -3.3496461973       -3.5281373465
 H        -4.6595033051       -0.2990081278       -4.9425233903
 H        -4.3587261342       -2.0108300055       -4.3431299422
 H        -4.3854317146       -0.5950616560       -3.1989293485
 H        -9.4523828649       -2.9828799033       -3.0452309451
 H        -9.9854840300       -3.7310123018       -4.5875329485
 H       -11.9268934615       -2.7287365472       -3.7500807014
 H       -11.3152481544       -1.6225727136       -4.9047225623
 H        -9.2102630114        1.8995199185       -4.0866041539
 H        -8.6123808451        0.8808624076       -2.9184137788
 H        -8.5325133954        3.8203734884       -2.7634142669
 H        -7.3377855775        2.7498428806       -2.3055438149
 H       -10.2915776364        0.1017660558        2.0762591391
 H       -11.0248883435        0.6346559471        0.6146437135
 H       -11.8081562174        1.5557218439        3.4527843723
 H       -12.5804974058        0.4749418812        2.4651921183
 H       -13.1437263574        5.2945596386       -0.0279759107
 H       -11.4808229132        5.1948568282        0.0689022466
 H       -12.3070715059        7.6950655609        1.4886680931
 H       -13.0485484104        7.4409205843       -0.1652247169
 H        -8.9328324961       11.2175359072        1.0058085981
 H        -8.5324270774        9.6207801068        0.8237168188
 H       -10.1069161304       10.2320985188        3.3081593918
 H        -8.5942247035       10.7371243269        3.1314095290
 H        -4.7431034792        7.3359767802        4.1518028438
 H        -4.8950618493        8.5715467464        2.9767971975
 H        -4.7088457276        6.7097099070        2.5969389127
 H        -6.6323057320        8.9723768384        5.7944475034
 H        -7.7154750607       10.0888967940        4.9798093396
 H        -6.1194345400        9.6905531584        4.1043752024
 H        -7.5629548255        7.1565918927        6.1043253423
 H        -8.2661247671        6.1026378551        4.9060296055
 H        -9.2924268531        7.3448497130        5.6165524985
 H        -8.6474681117        8.3883078025       -0.8655716400
 H        -9.0272595673       10.0864421573       -1.2150656855
 H        -9.4443271205        8.9617070752       -2.4172124981
 H       -11.7630610849       10.3332710691       -2.0854483988
 H       -12.8272157881        9.1307249103       -1.1322124384
 H       -11.6909296535        8.5110701581       -2.4596842886
 H       -14.9556038827        3.9466763499        1.0753903404
 H       -14.8184855564        5.2641076104        2.2286635984
 H       -15.3133769850        3.7629176103        2.7870703241
 H       -12.0716166819        3.4797760567        4.2939878791
 H       -13.6563339948        2.8870973560        4.2907014360
 H       -13.6197815567        4.5414564953        4.5259972653
 H        -7.7610079202        0.1009560343        0.8560862226
 H        -7.3084443664        0.6547606570       -0.6965711181
 H        -9.0187247611        0.1156427087       -0.3471857611
 H        -6.9971634648        2.4736709475        1.9879724972
 H        -7.4572972824        3.8611595539        1.1600866724
 H        -6.4166279921        2.7049823940        0.2716653090
 H       -10.9436439188        0.5722977500       -5.3339789654
 H       -11.9855716125        2.0541249946       -4.8116501618
 H       -12.6265171424        0.4055075701       -4.9190328944
 H       -12.9397714751        1.9153162533       -2.2423872015
 H       -12.7807532425        0.2594256548       -1.4506800889
 H       -13.7105306394        0.4474994587       -2.8679308667
 H        -7.1501041464       -3.6574156057       -6.3444565704
 H        -5.6562534041       -2.6809468739       -6.1199932750
 H        -7.0942058721       -2.0030430964       -6.8541137696
 H        -6.0140512578       -3.6970092369       -3.3185863308
 H        -7.5620945883       -4.2969218799       -3.7714603852
 H        -7.3806428452       -3.1406656435       -2.5111483764
 Na       -9.1650968066        5.3263776207        1.8424969394
