117

 C        -4.5832132693       -2.5729755868       -3.1982979237
 C        -6.0108576312       -2.2026562355       -3.1128116592
 O        -6.3523269189       -1.2741816591       -2.3905683396
 C        -7.0002613503       -2.9694811243       -4.0310044803
 C        -8.3319331674       -2.0890793679       -4.0166900255
 O        -8.2504698476       -0.8895316635       -4.1805739053
 C        -9.6381121614       -2.8534197408       -3.9350969968
 C       -10.7530683542       -1.8259700456       -4.3219087466
 C       -10.9318028692       -0.8035858148       -3.1128575854
 O       -10.6049411020       -1.1463598331       -2.0180035112
 C       -11.6631303744        0.5589261329       -3.2868997657
 C       -10.7436177240        1.6597213928       -2.5399641782
 O       -11.1448919696        2.1842913566       -1.5239094234
 C        -9.3273989080        1.9521872148       -3.1460530728
 C        -8.3848985724        2.7513308577       -2.1991434238
 C        -9.0001953860        3.1421034986       -0.7964787453
 O        -9.4666583861        4.2342666737       -0.7023099345
 C        -8.6705738190        2.0726650214        0.4487198356
 C        -9.7382044868        2.4273584708        1.5119507584
 O        -9.7427385995        3.5401256882        2.0036878222
 C       -10.7979466058        1.3130965713        1.9385307999
 C       -11.9633588857        1.9161223305        2.7248101179
 C       -12.7496775075        2.9276311684        1.9181460606
 O       -12.8785174365        2.9173904713        0.7237596126
 C       -13.4931345547        4.1443159850        2.7077238610
 C       -12.4984407782        5.2723262905        2.2415756403
 O       -11.3796908570        5.4416479825        2.7688859406
 C       -12.8435108527        6.1354271231        1.0082917579
 C       -12.3527940913        7.5922672974        1.2064216304
 C       -11.2282581170        7.9104239550        0.1602320283
 O       -10.4153162719        7.1143239086       -0.1452017284
 C       -11.0829791388        9.3591787359       -0.3708553306
 C       -10.0909466605       10.1055079178        0.7061887810
 O       -10.5280133187       10.8248817881        1.5511365088
 C        -8.6117777495        9.8955949657        0.5134303375
 C        -7.9049553301        9.8285865477        1.8770159871
 C        -8.4323672989        8.6370193036        2.6078670489
 O        -9.5994127171        8.2509936915        2.4129464844
 C        -7.4966892487        7.7142712657        3.4926351110
 C        -6.6537766395        6.8371883750        2.4352733921
 O        -7.1337200569        5.9140464933        1.7864901203
 C        -5.1891631285        7.2079244096        2.2415777509
 C        -6.6804813988        8.6254793267        4.3871540794
 C        -8.4093006828        6.7479271221        4.3305635540
 C       -10.3870301362        9.3951492873       -1.7422730666
 C       -12.4604647422       10.1593593091       -0.3071670534
 C       -14.9193187153        4.2057334694        2.0951384875
 C       -13.5443453814        3.9891771557        4.2709751529
 C        -8.4885519920        0.6213444672       -0.0352578913
 C        -7.2722284730        2.5912361920        0.8198158059
 C       -11.7741010534        0.9800947265       -4.7544044796
 C       -13.0841678681        0.3562101204       -2.6027499699
 C        -6.4321358177       -2.9085770624       -5.4738170581
 C        -7.2085973539       -4.4459547987       -3.5862543914
 H        -4.3951098808       -3.5789336947       -3.7155216061
 H        -4.1556884350       -2.7044792120       -2.2395112821
 H        -4.0197985674       -1.7622562030       -3.6796494874
 H        -9.6861097086       -3.0353140479       -2.8558442605
 H        -9.4825227070       -3.7602969546       -4.5072426712
 H       -11.6959815073       -2.3722183193       -4.3021357203
 H       -10.5478307256       -1.4613941981       -5.2860348829
 H        -9.5356799084        2.4661098258       -4.0412401164
 H        -8.9051666210        0.9600917826       -3.3804353559
 H        -8.1155437254        3.7257013327       -2.6892517069
 H        -7.5220375211        2.1006402883       -1.9870659003
 H       -10.2788727518        0.4939494553        2.5184349518
 H       -11.1304594277        0.8521175520        0.9748425826
 H       -11.5201768386        2.3665803484        3.6153355520
 H       -12.6399649261        1.1127945773        2.9491696397
 H       -13.9273433590        6.1487971287        0.7151219682
 H       -12.2755524038        5.7049188036        0.1512618731
 H       -11.8836958494        7.7779564847        2.1503965870
 H       -13.0969455747        8.3291214288        1.1532405658
 H        -8.1945030586       10.8589992152        0.0283101065
 H        -8.5173370789        8.9960960872       -0.1249489668
 H        -8.2298953233       10.7917994256        2.3711903106
 H        -6.8420491083        9.6874509093        1.6774630398
 H        -5.1770675559        8.0772608640        1.5971991088
 H        -4.6058351701        6.3693462760        1.8731574129
 H        -4.5738807765        7.4478272611        3.1071411863
 H        -6.1624092350        8.0328584307        5.1871554295
 H        -7.3622505863        9.3255954071        4.9277974505
 H        -5.8195107381        9.1615992504        3.9035258917
 H        -7.9844863104        5.7743717229        4.6023865962
 H        -9.3568382128        6.4340695848        3.8811744763
 H        -8.5895295298        7.2060765962        5.3329666687
 H        -9.8887657912        8.4834834076       -2.0442689960
 H        -9.6367409136       10.1964037248       -1.8670028202
 H       -11.1029645485        9.5879401518       -2.5363144837
 H       -12.4973006344       10.8798662562       -1.1145384655
 H       -12.3921102773       10.6495630253        0.6491641381
 H       -13.4322102299        9.5956554146       -0.5152958295
 H       -14.8800137755        4.0132109817        1.0348279347
 H       -15.4019992909        5.1379026251        2.3270106759
 H       -15.4233198688        3.3826686582        2.5557007417
 H       -12.6017534711        4.3236467911        4.7386787789
 H       -13.9557603238        2.9879678315        4.5259221129
 H       -14.3381523621        4.7993149804        4.5753227086
 H        -7.9723490053        0.0551591031        0.8047652149
 H        -7.8877423508        0.5635095870       -0.9522316255
 H        -9.4758200646        0.1758487091       -0.2428307035
 H        -6.8525116790        2.0378357920        1.6467420622
 H        -7.3230874205        3.6700527825        1.0776376751
 H        -6.5153451620        2.4666054991        0.0663116967
 H       -10.7749915227        1.1717016407       -5.2437478051
 H       -12.3012027912        1.9656767892       -4.7727385167
 H       -12.3483381422        0.2739064656       -5.3246518478
 H       -13.8171795317        1.1378381263       -2.8593124643
 H       -12.9931017468        0.3351779358       -1.4766026377
 H       -13.4063944407       -0.6383618544       -2.9103876879
 H        -7.1778467390       -3.1857506587       -6.1951217110
 H        -5.5718197280       -3.5952902736       -5.5393255247
 H        -6.0860586195       -1.9051462480       -5.7250327402
 H        -6.2401455726       -4.9533376849       -3.5276954064
 H        -7.8983040315       -5.0316207158       -4.2535240334
 H        -7.6271486715       -4.5612404211       -2.5624382586
 Na       -9.4881305097        5.5999822675        1.1860586492
