117

 C        -4.6939020815       -3.7713635337       -1.8336055052
 C        -6.0614927846       -3.0800593821       -2.1229913142
 O        -6.7126092195       -2.5718122491       -1.2523512761
 C        -6.7310868037       -3.2460139345       -3.6181560395
 C        -7.9677058210       -2.1729005369       -3.6941305423
 O        -7.7543665899       -0.9867960792       -3.8037574596
 C        -9.4191945234       -2.6263851860       -3.4277891798
 C       -10.5071102204       -1.8089498080       -4.0634125315
 C       -10.8900317986       -0.6737297751       -3.0263514680
 O       -10.8872426819       -0.9643296929       -1.8344251375
 C       -11.4782577406        0.7819682442       -3.5433706235
 C       -10.5804228188        1.8239331750       -2.8218985256
 O       -10.9120416564        2.2248659519       -1.6988225177
 C        -9.1642542049        2.1492980835       -3.3503461999
 C        -8.0998172931        2.1007526684       -2.2088269402
 C        -8.7324848309        2.9218793601       -0.9704643973
 O        -8.8343945049        4.1217054399       -1.1067552373
 C        -8.7054283706        2.1064141203        0.4132204478
 C        -9.6868330824        2.8520229804        1.5076926596
 O        -9.2323127752        3.8260190353        2.0445251787
 C       -11.0784975825        2.1855357462        1.7459786652
 C       -11.9764858797        2.5383273114        2.9335403870
 C       -13.2772140807        3.1615936941        2.4198880976
 O       -13.9045249950        2.6246082876        1.5183285534
 C       -13.7407779769        4.5893489851        2.8957514689
 C       -12.7924122145        5.5510212414        2.0912731277
 O       -11.5769383590        5.4627832650        2.3222205353
 C       -13.4030857470        6.6219379481        1.1347774079
 C       -12.6659934381        7.9629283697        1.2694757162
 C       -11.6703357373        8.3386029950        0.1541010263
 O       -10.9381939305        7.5852315366       -0.3880294986
 C       -11.5229497762        9.9039021888        0.0063026658
 C       -10.1192021513       10.2182688138        0.6411360008
 O        -9.9795881464       10.7244926949        1.7554308309
 C        -8.8509675291        9.7000685109       -0.0969253646
 C        -7.8421437804        9.3351443923        1.0177847013
 C        -8.1604067135        8.1509949055        1.8944864790
 O        -9.3205471417        7.8313891431        2.0691235469
 C        -7.0830124061        7.4469229737        2.7143836000
 C        -6.5804273866        6.2518670438        1.7727658981
 O        -7.2771586456        5.6497197995        0.9941544528
 C        -5.0584756864        5.9001753777        1.8855807564
 C        -5.9438682495        8.4310390146        3.0239515813
 C        -7.6687478102        6.7784993302        3.9786947017
 C       -11.4388490754       10.2278749265       -1.4866600685
 C       -12.6159217484       10.7970521280        0.6891820427
 C       -15.2656886772        4.7731193336        2.6008149650
 C       -13.5158993526        4.8270382384        4.4015193496
 C        -8.9153926782        0.5186285235        0.2255273370
 C        -7.3477760140        2.3262655266        0.8986870282
 C       -11.5453111833        0.9584792433       -5.0568298159
 C       -12.9068506291        0.9045711897       -2.9708192368
 C        -5.7386188796       -3.0115898825       -4.8010900167
 C        -7.0732742536       -4.7670647171       -3.7171024192
 H        -4.0415492351       -3.2182816116       -1.2119882109
 H        -4.1539188995       -4.0769861574       -2.7104021736
 H        -4.9211724133       -4.6617100628       -1.2575249498
 H        -9.5125590937       -2.5335791353       -2.3515825886
 H        -9.4284413860       -3.6528656835       -3.5587349229
 H       -11.3938887071       -2.4240496880       -4.3592594256
 H       -10.1954514711       -1.3064903985       -4.9918737667
 H        -9.2441221957        3.1544238518       -3.8261487200
 H        -8.9190870692        1.3774492492       -4.1712357655
 H        -7.1099740958        2.4734494208       -2.4640057326
 H        -7.9621571167        1.0348662697       -2.0318761506
 H       -10.9462699780        1.0899303890        1.7694726784
 H       -11.6010252546        2.4384697772        0.8189312077
 H       -11.4132996433        3.0968976568        3.7007062321
 H       -12.2787041191        1.6644665315        3.5655858463
 H       -14.4324661520        6.7752631414        1.5183893349
 H       -13.4267910885        6.1632359561        0.1336051977
 H       -12.0571934444        7.8733224804        2.2121336439
 H       -13.3157979170        8.7946590811        1.3906216668
 H        -8.4051632651       10.4972468607       -0.7469254980
 H        -9.0465556145        8.9456731618       -0.8341275734
 H        -7.7467906632       10.2727824828        1.6029237932
 H        -6.8492045058        9.2552317948        0.6103154843
 H        -4.9267024929        4.8373876197        1.9715374508
 H        -4.4970026704        6.2256264153        2.7083966568
 H        -4.6058422184        6.3023184173        0.9594374654
 H        -5.3583277266        7.9370707000        3.8470445377
 H        -6.2855022545        9.4272207934        3.4017930350
 H        -5.1732765506        8.5872121641        2.2110519754
 H        -7.2626951143        5.7697028175        4.1454686265
 H        -8.7756723606        6.7772092803        3.9250041274
 H        -7.4631266411        7.3882264817        4.9024624047
 H       -10.6444821786        9.7585004747       -2.0523876276
 H       -11.3218857858       11.3109549012       -1.5753007905
 H       -12.3394930352        9.8920297013       -1.9734686815
 H       -12.4598787757       11.7910626051        0.4144223267
 H       -12.6157616176       10.7516088811        1.7949789587
 H       -13.6345339304       10.4365994895        0.5095516900
 H       -15.5129924940        4.6081424306        1.5680892446
 H       -15.6026007380        5.7450974415        2.8920768959
 H       -15.7404553484        3.9938700078        3.1354744100
 H       -12.4526622049        4.8508634896        4.7415654858
 H       -14.0202505304        3.9055627451        4.8234293035
 H       -13.9566538993        5.7889793406        4.6624773821
 H        -8.7242527011        0.0689203293        1.2293596706
 H        -8.1767232355        0.2130218010       -0.4797517265
 H        -9.8518474977        0.1964138857       -0.2346060059
 H        -7.1794105152        1.9136761780        1.8959451120
 H        -7.0789180670        3.3952803260        0.9322274658
 H        -6.6376402688        1.8203243602        0.2514048223
 H       -10.5480389204        0.9422026654       -5.5599484655
 H       -11.9662149456        1.9523714132       -5.3589165424
 H       -12.1997661614        0.2063287593       -5.4705914944
 H       -13.2890346338        1.9457397009       -3.0512694058
 H       -12.8543758020        0.7222746443       -1.8443577210
 H       -13.5983979948        0.2806135073       -3.5136233730
 H        -6.2519391265       -3.1903555399       -5.7210638266
 H        -4.9580593512       -3.7688812365       -4.7817959627
 H        -5.3544069057       -1.9970553898       -4.8076831741
 H        -6.1506768423       -5.3330857919       -3.5655886367
 H        -7.5327698485       -4.9484486881       -4.7338234903
 H        -7.7929450593       -4.9740826185       -2.8984233792
 Na       -9.8042563901        5.7264956653        0.5591825801
