117

 C        -6.3241590132       -6.1586773121        2.3192123816
 C        -6.3506363673       -4.9889472739        3.3505048287
 O        -5.7471047698       -3.9299007791        3.3035254415
 C        -7.1694252271       -5.2813564908        4.6245698108
 C        -7.1091027014       -3.7843754324        5.3160822372
 O        -6.3808974686       -3.6379653281        6.2546329474
 C        -8.0784749754       -2.7238929937        4.7652955409
 C        -7.9172385387       -1.4710735801        5.5116294225
 C        -8.2014599701       -0.2301612478        4.5978656808
 O        -8.0118821493       -0.3892444166        3.4282629087
 C        -8.3574071290        1.1622698660        5.3114798867
 C        -7.9709328324        2.2170811808        4.1216872921
 O        -6.9061403733        2.7613022378        3.9588899994
 C        -9.1222281645        2.3204810178        2.9587416793
 C        -8.6440411619        2.5682318507        1.5373340187
 C        -9.8006569081        3.1641160149        0.6387836694
 O        -9.6219277940        4.3466600814        0.3527237211
 C       -10.9439841512        2.3217903967        0.0450811570
 C       -12.3007791409        2.7588251040        0.6185273572
 O       -12.4266547443        3.3160308936        1.6831348075
 C       -13.6480018356        2.4373818813       -0.1390552624
 C       -14.3345364886        3.6781145384       -0.7346015009
 C       -13.6167808496        4.9340409914       -1.0239123433
 O       -12.5272514777        5.1920881332       -0.4880130110
 C       -14.1524828536        6.1176780685       -1.9873663850
 C       -13.0448417104        5.9709472107       -3.1892090518
 O       -11.8701954128        5.6492404042       -2.9764230573
 C       -13.5135860603        6.4445911224       -4.5242193257
 C       -12.3763646009        7.0011746947       -5.4872711921
 C       -12.0742410892        8.5966003078       -5.2756985126
 O       -12.7632992061        9.1333996573       -4.3792336952
 C       -10.9859455805        9.3315748705       -5.9622873087
 C        -9.8527955074        9.2307546092       -4.8394049161
 O        -9.1120402115        8.2941940902       -4.9007406372
 C        -9.8493507189       10.2620596625       -3.6361424258
 C        -8.7867826003        9.8926210007       -2.6314122187
 C        -8.7903307580        8.4768200033       -1.9984362272
 O        -9.8346102190        7.9659352482       -1.7385888952
 C        -7.3457610483        7.8609757699       -1.6421354102
 C        -7.4149631144        6.4485590329       -2.4224249949
 O        -8.1409577949        5.5204226671       -2.2000265044
 C        -6.4430520214        6.2439630201       -3.5892456409
 C        -6.1468972332        8.7258123546       -1.9276758675
 C        -7.4112672569        7.5129925054       -0.0819100805
 C       -10.4898349287        8.7097303171       -7.3186158875
 C       -11.3578119468       10.8524746881       -6.2589060000
 C       -15.6078472600        5.8286711789       -2.5874570692
 C       -13.9928363255        7.5865784615       -1.3362379751
 C       -10.9760093820        2.5831473859       -1.4772570122
 C       -10.8070753265        0.7840846713        0.2953984888
 C        -9.7982656601        1.3836377208        5.8767575445
 C        -7.4571697953        1.4878923965        6.5450675894
 C        -8.5618741827       -5.7146686087        4.3704374776
 C        -6.4773836926       -6.3336394400        5.5333412252
 H        -6.3332266549       -7.0603915571        2.9455531304
 H        -5.3677200907       -6.2371010711        1.7794937171
 H        -7.1350799226       -6.2250490733        1.6176851866
 H        -9.0935037899       -3.0019918270        4.8609074459
 H        -7.8268728136       -2.4462832029        3.7416352409
 H        -6.9504182574       -1.2190909172        5.7838640914
 H        -8.3782140193       -1.4598507212        6.5310375920
 H        -9.7641704471        3.0977430067        3.2877246438
 H        -9.6833104570        1.3749290967        2.9773006462
 H        -8.2363194666        1.6318787803        1.1229171262
 H        -7.7759940779        3.3159645140        1.6640265266
 H       -14.3255922408        1.8175345995        0.4447751182
 H       -13.4845999854        1.6737826359       -0.9170648006
 H       -15.2772116845        4.0445907520       -0.1951490402
 H       -14.8145462635        3.3812367245       -1.6959989366
 H       -14.2698302935        7.2301147612       -4.5137281887
 H       -13.9888676945        5.4824047843       -4.9568875098
 H       -12.6087290514        6.9639951625       -6.5077450282
 H       -11.3643282255        6.6100086917       -5.4280250478
 H       -10.8022018527       10.3190162043       -3.1949230336
 H        -9.6507487536       11.2754999987       -4.0917576644
 H        -8.7332773265       10.5984742711       -1.8447415232
 H        -7.7985191304       10.1721933154       -3.0866159472
 H        -6.4386322528        7.1518719911       -4.3253120618
 H        -6.7049911796        5.3341309698       -4.1169121845
 H        -5.4776173187        6.0932569274       -3.1777130518
 H        -6.0235373558        9.5997200703       -1.2614898709
 H        -6.1681738468        9.1840993697       -2.8965336573
 H        -5.2715212385        8.0471901551       -1.7632160159
 H        -7.9674586533        8.2732778056        0.4739928197
 H        -6.4482097037        7.5829869512        0.4229238241
 H        -7.8726456210        6.5301367674        0.1408389688
 H       -10.5650427709        9.3707481165       -8.1536597632
 H       -11.0962070546        7.8339980408       -7.5017296559
 H        -9.4771117262        8.2418131655       -7.1955959309
 H       -10.5318194673       11.2794820618       -6.6268164765
 H       -11.7821578720       11.4150805957       -5.4061553363
 H       -12.1125254699       10.8978329609       -7.0425364774
 H       -16.2503592188        5.9419264489       -1.7591767416
 H       -15.6594160913        4.8679193694       -2.9737123306
 H       -15.9734328967        6.5590874831       -3.3255433071
 H       -14.8391325776        7.9094152419       -0.8485474341
 H       -13.6656474556        8.2829638754       -2.0585910376
 H       -13.2849370098        7.5417739635       -0.5426961625
 H       -11.7083914461        1.9075606642       -1.9409638289
 H        -9.9416429606        2.3484497676       -1.8938346929
 H       -11.2100854763        3.6248343715       -1.8028688714
 H       -11.0533405245        0.4796755763        1.3488695894
 H        -9.8087645111        0.2775983953        0.1148564249
 H       -11.5272793437        0.2149053094       -0.2805220503
 H       -10.1953476466        0.4349511764        6.2192684053
 H       -10.5540202566        1.8639194670        5.1804474352
 H        -9.6900774212        2.0883700718        6.6757770784
 H        -7.7325298164        1.2361441183        7.5491213919
 H        -7.3564932490        2.6126234208        6.6135982727
 H        -6.4643596453        1.1051626300        6.4700964312
 H        -9.1197570811       -4.9940713190        3.7735617965
 H        -9.0340032523       -5.7441414361        5.3584735162
 H        -8.7402469035       -6.7458990403        4.0332193817
 H        -5.6862766624       -5.8421974708        6.1080651101
 H        -5.9925134932       -7.1146792462        4.9475945380
 H        -7.1829430755       -6.7518861166        6.2356278740
 Na      -10.3102431105        5.8114773870       -1.2838820685
