117

 C        -8.7378535885       -4.7227444638        0.1450534113
 C        -8.3787098556       -3.2906854725       -0.2212554144
 O        -8.9457900735       -2.3461052729        0.2970945357
 C        -7.2490014094       -2.9950056373       -1.2958153077
 C        -7.8060955810       -2.0030671043       -2.3720326303
 O        -7.6623396369       -0.7850684846       -2.3650605736
 C        -8.6755906116       -2.5953696207       -3.6211805112
 C        -9.5395015852       -1.5495922145       -4.3232929620
 C       -10.9298634239       -1.2754447744       -3.5822698227
 O       -11.4059404058       -2.0296647393       -2.7669184662
 C       -11.8122465001        0.0223955612       -3.8889806382
 C       -11.2332653250        1.1030522829       -2.9201188095
 O       -11.8925477254        1.6117652762       -2.0204118057
 C        -9.7676078516        1.6095737341       -3.3169521001
 C        -9.3511240690        2.8959822112       -2.6095029969
 C        -9.5213980787        3.0179142457       -1.0486387985
 O        -9.5417599931        4.1342109775       -0.6612119970
 C        -9.3420286380        1.8870377464        0.0519844379
 C       -10.0572405890        2.5444585040        1.3891385887
 O        -9.5521655707        3.4832923390        1.9801639835
 C       -11.4406240407        1.9108780254        1.8855525507
 C       -12.0450118240        2.7027726819        3.1079982190
 C       -13.0615010056        3.7771711091        2.6583741308
 O       -13.8499797795        3.4785493919        1.7682192170
 C       -12.9755125414        5.2445323397        3.3136782759
 C       -11.9650081624        5.9103754649        2.3786485392
 O       -10.8264873673        6.1185550528        2.7761994949
 C       -12.2135670525        6.0664133880        0.9289082648
 C       -12.2671965367        7.5776233901        0.4807670916
 C       -11.1026505952        7.9661391456       -0.4001371010
 O       -10.1732897080        7.2781052129       -0.6137152061
 C       -11.1176582469        9.4051956092       -0.9771112071
 C        -9.9847401646       10.1034919285       -0.0802137515
 O       -10.2719060284       10.9061194698        0.8339803919
 C        -8.5042169146        9.8574622647       -0.4132189839
 C        -7.5916681251        9.9897634395        0.8087157769
 C        -7.5035620420        8.5643798571        1.4731906660
 O        -8.4997865626        8.0131097967        1.8435627787
 C        -6.1154575372        7.8878981140        1.7503378703
 C        -5.9305469238        6.8232730253        0.5618257299
 O        -6.8476131588        6.0429205018        0.3603823762
 C        -4.6121496339        6.6496477649       -0.1937965921
 C        -4.8783024595        8.7752248531        1.8525388650
 C        -6.3361176387        6.9950146556        3.0500368511
 C       -10.5452827019        9.4572100875       -2.4900343316
 C       -12.5166450868       10.0766449280       -0.9263970694
 C       -14.2376034471        6.0005600343        3.0769992169
 C       -12.5416361911        5.2211837828        4.7764866199
 C        -9.9178157107        0.5157856317       -0.1644633761
 C        -7.8042846068        1.6937645601        0.3435995520
 C       -11.8194742338        0.5435588351       -5.3767465541
 C       -13.2309896558       -0.2943375201       -3.4481808142
 C        -6.1940574857       -2.1804535506       -0.4535634153
 C        -6.5965868564       -4.2573472148       -1.8805749698
 H        -8.8112601455       -5.4538441247       -0.7657744965
 H        -9.6961752681       -4.7502811633        0.6354789717
 H        -7.8768998959       -5.0938978750        0.7969882039
 H        -9.3353856879       -3.3796137445       -3.2307340123
 H        -8.0887326259       -3.1037410410       -4.3330006157
 H        -9.7422863808       -1.9403454679       -5.3110319129
 H        -8.9117667974       -0.6449136665       -4.4925976673
 H        -9.7180523710        1.6902174784       -4.4424306925
 H        -9.1304009583        0.7362962775       -3.1033141507
 H       -10.0598972004        3.5652992523       -3.0087006825
 H        -8.3660941125        3.2264735271       -2.9582942616
 H       -11.3159677380        0.8564500416        2.1287515332
 H       -12.1452103386        1.9925233793        1.0192636359
 H       -11.2155547310        3.0315731633        3.7588063075
 H       -12.5302337543        1.9438162954        3.7925413760
 H       -13.1675587685        5.6491183271        0.5836969131
 H       -11.4094809934        5.5256700207        0.3967937163
 H       -12.3648059059        8.2119642558        1.3350988189
 H       -13.2205624596        7.6704967496       -0.0714193323
 H        -8.2254654754       10.6328958268       -1.1558495332
 H        -8.3957537973        8.9126819288       -0.9132098271
 H        -7.9800331655       10.7706138443        1.5345446670
 H        -6.5228219747       10.2090005284        0.5070732220
 H        -3.8386493336        7.3681635807        0.1611550509
 H        -4.7532424518        6.9239598926       -1.2423035890
 H        -4.2961653742        5.6045706033       -0.1743875066
 H        -3.9184027243        8.4116093928        2.2664690990
 H        -5.2409645218        9.6229984732        2.4609000387
 H        -4.4806834635        9.2308946898        0.9293413638
 H        -5.5991754317        6.2319400516        2.9298217288
 H        -7.3321852615        6.5898139358        3.0646416833
 H        -6.2822984298        7.6360429246        3.9309088269
 H        -9.8339902143        8.6910076590       -2.7585736264
 H       -10.1327089598       10.4636208082       -2.6307570583
 H       -11.4090792105        9.3655757156       -3.1630902696
 H       -12.4251572607       11.0861166411       -1.5327316654
 H       -12.8509652436       10.2450378030        0.0767882116
 H       -13.2118792178        9.4000324142       -1.4245298618
 H       -14.5340886241        5.7971238323        2.0630362924
 H       -14.0675521137        7.0647511988        3.1888993590
 H       -15.0839759695        5.6741719161        3.6031575432
 H       -11.7816518517        4.4409050374        4.9912506921
 H       -13.4215347098        4.8999944224        5.3501462020
 H       -12.1302546980        6.2805661605        5.0762179701
 H        -9.8879450420       -0.0629687246        0.7788977878
 H        -9.5051628835       -0.0157053763       -0.9881124792
 H       -10.9848478966        0.5736529343       -0.2457742970
 H        -7.5514522980        0.8034220786        0.9200791973
 H        -7.2372087249        2.5539275940        0.7143763040
 H        -7.4545941295        1.5937129211       -0.6815897482
 H       -10.8773133515        0.9194581296       -5.6590513471
 H       -12.5085376523        1.3697061359       -5.5332882023
 H       -12.1125681395       -0.2357419658       -6.0322308659
 H       -13.8581903231        0.5752269136       -3.2063328774
 H       -13.0791284742       -0.9592516760       -2.5770423668
 H       -13.8342377549       -0.9004307018       -4.1220649488
 H        -5.3549573269       -1.8478681766       -1.0539439595
 H        -5.7093634219       -2.7986506750        0.2901268473
 H        -6.5433523635       -1.2839350666        0.0644024343
 H        -6.3083775561       -4.9330520125       -1.0944575964
 H        -5.6913135755       -3.9863233857       -2.4366969942
 H        -7.1743441136       -4.8761556298       -2.5749128823
 Na       -8.9876875162        5.6781254084        1.0134065675
