117

 C       -13.2179538707        5.2233234017        0.8618478494
 C       -12.2930691954        4.0510049556        1.1213556840
 O       -11.9757326371        3.2606710933        0.2530921953
 C       -11.7844090863        3.9197008804        2.6011683300
 C       -11.3001693763        2.3895289940        3.0140753322
 O       -10.2947679533        1.9594531763        2.5654633325
 C       -11.9281824113        1.7195308918        4.2560734076
 C       -12.4057929728        0.2273360731        4.0828293741
 C       -14.1014979755        0.2264344720        3.6381904753
 O       -14.9161546673        0.7434669169        4.3085594778
 C       -14.5105635120       -0.7074999127        2.4648156048
 C       -13.7062153903       -0.4254921026        1.1835023729
 O       -13.0688135044        0.6070595314        1.0527127849
 C       -13.6124354875       -1.6004691324        0.0067725435
 C       -12.2081416903       -2.2923985576        0.1904802758
 C       -11.3051669598       -1.8530234430       -0.9811818469
 O       -11.4939164788       -0.7938878891       -1.6265086362
 C       -10.2034090902       -2.8792530220       -1.4440492475
 C        -9.0585446149       -2.7340721392       -0.2322694765
 O        -9.4913762563       -2.8963145081        0.8697854576
 C        -7.5649783645       -2.4105571817       -0.3518423641
 C        -7.0207132699       -1.3728696827        0.7376648992
 C        -7.6915225528        0.0237659157        0.4123370884
 O        -8.8541150339       -0.0412213745        0.2292731431
 C        -6.8558524412        1.2776506234        0.4651202600
 C        -7.5941880948        2.4533494941       -0.3469501219
 O        -8.7800774030        2.5847915005       -0.0843843645
 C        -6.8186279358        3.4066813909       -1.1948483335
 C        -7.3345211666        4.8574055133       -1.1938078054
 C        -6.2286887089        5.8901644489       -0.9877938157
 O        -5.3066221316        5.6873474127       -0.2815327863
 C        -6.1229884972        7.4161400083       -1.7830619011
 C        -7.3631284587        8.2691662054       -1.5235962616
 O        -8.3996075052        7.7712564277       -1.0608008498
 C        -7.3034012234        9.7505139361       -1.8223360327
 C        -8.1772342868       10.0813016840       -3.2048361952
 C        -9.4260767248       11.0313254143       -3.1374527028
 O       -10.3771242549       10.6819406376       -2.4685650545
 C        -9.3996341761       12.4018961831       -3.7864177095
 C        -8.6931855547       12.4942989463       -5.2316070927
 O        -9.1299553869       11.8132224605       -6.1083117220
 C        -7.4330733681       13.3336447300       -5.4364557791
 C       -10.9364353137       12.8008515652       -3.9949864597
 C        -8.7232799863       13.3083766802       -2.7209000725
 C        -4.7821638250        8.0933560484       -1.1788419654
 C        -6.1170453081        7.2517531823       -3.3015058608
 C        -6.8676530051        1.6960744438        1.9574372160
 C        -5.4069121435        1.1174142331        0.0129821488
 C       -10.7986552273       -4.3413492527       -1.4377272933
 C        -9.6447668293       -2.3508486061       -2.8160403817
 C       -14.2711804892       -2.1152355045        3.0494587896
 C       -15.9656405841       -0.3957448233        2.1139773467
 C       -10.4383191743        4.5989778465        2.4081650435
 C       -12.5692778272        4.7580107430        3.6765371165
 H       -12.8228375118        5.7871941233       -0.0058720434
 H       -13.2471160524        5.7764689083        1.7273818134
 H       -14.1590910680        4.8719081794        0.4416081206
 H       -12.8367701575        2.1926269188        4.6381081630
 H       -11.0813856721        1.7046947316        5.0553552616
 H       -12.2414338893       -0.6698941410        4.7572056127
 H       -12.0246332011       -0.0260991746        3.1248627404
 H       -13.9063754774       -1.1252882796       -0.9787840535
 H       -14.3276619937       -2.3844250121        0.3179148407
 H       -12.2626104109       -3.3918675949        0.3531824864
 H       -11.6260749509       -1.9751538940        1.0504867760
 H        -7.2614376045       -2.1397579261       -1.3094623081
 H        -7.1175675231       -3.3012398570       -0.0028886134
 H        -5.9575498991       -1.2716853563        1.0589932021
 H        -7.6205647025       -1.5410191172        1.6366203484
 H        -6.8761256780        3.0992513557       -2.1698992936
 H        -5.7385832600        3.4741729914       -1.0496325102
 H        -8.0543758633        5.0311563509       -0.3829209208
 H        -7.8724109860        5.0576687509       -2.1389043528
 H        -6.3179839087       10.1287107558       -1.9518786626
 H        -7.7684770055       10.2733010368       -1.0088988740
 H        -8.7119453756        9.2174542698       -3.6629892735
 H        -7.3882454619       10.3729662786       -3.9526993511
 H        -7.4997131764       14.0702765752       -6.2630303146
 H        -6.6788087912       12.6540814314       -5.3916580523
 H        -7.3967074189       13.9700790665       -4.5161391070
 H       -11.2730343773       13.8978620251       -4.0015010620
 H       -11.7637059601       12.2972577581       -3.2924223761
 H       -11.1983537587       12.6362511429       -5.0829913448
 H        -9.2919063257       13.2381833203       -1.8674563094
 H        -8.8805887119       14.3114998872       -3.1551841652
 H        -7.6745702809       13.0455384940       -2.8677604720
 H        -4.1410374694        8.7874282886       -1.8240266725
 H        -4.1935033429        7.1550545575       -0.8531888912
 H        -4.9572476115        8.7407686027       -0.3565203598
 H        -6.4375935110        8.2374252909       -3.6395699681
 H        -6.8174047800        6.5441436184       -3.6448502267
 H        -5.1343160064        6.9810113040       -3.7340238026
 H        -7.0195712681        2.6863126943        2.1976288258
 H        -5.8679420141        1.3982832360        2.3257173850
 H        -7.5281908835        1.1459914989        2.6125010815
 H        -5.0403985090        2.1355171506        0.0971525129
 H        -5.3642767008        0.8250599095       -1.0620069429
 H        -4.6402564189        0.6153916546        0.5873513460
 H       -10.3323005189       -4.8379069775       -0.5425650557
 H       -10.3836278648       -4.9112172349       -2.3399430203
 H       -11.8940111324       -4.5593052125       -1.5487310805
 H       -10.4136104097       -2.2513167402       -3.5391216981
 H        -8.8594233517       -2.9966341411       -3.1835318671
 H        -9.2717374812       -1.3608267995       -2.5512098150
 H       -13.4387022362       -1.9862956989        3.7302514604
 H       -14.1178986901       -2.8929937912        2.3057725992
 H       -15.0834580054       -2.5426588060        3.6287105194
 H       -16.5839033680       -0.8534651023        2.8624998359
 H       -16.2009631912       -0.7932064583        1.1162589071
 H       -16.0715606230        0.7371026174        1.9867590189
 H        -9.7524774843        4.0774792361        1.8114463142
 H        -9.9523600878        4.6342779921        3.3612630886
 H       -10.3725611093        5.6772696668        2.0636362955
 H       -12.1291311252        4.4569777960        4.6076005276
 H       -13.6379884736        4.3895175088        3.5721210800
 H       -12.4346437111        5.7971926712        3.4734472018
 Na      -10.8552294593        1.0016614030        0.0839135010
