117

 C        -9.6754587762       -4.6308792510       -0.1031035149
 C        -8.6774337492       -3.4244169447        0.1999629059
 O        -8.8735983870       -2.7120816315        1.1473384427
 C        -7.5614321466       -3.1616547333       -0.8527765913
 C        -8.1915069372       -2.3762484140       -2.0741796861
 O        -7.9039592042       -1.1935230605       -2.1650443035
 C        -9.0946439361       -3.0408186085       -3.1739209727
 C        -9.8634799011       -2.0158874152       -4.0804968534
 C       -10.9131449148       -1.2629180371       -3.2355604898
 O       -11.1107361256       -1.4734110978       -2.0562888221
 C       -11.7220823641       -0.0270434662       -3.8918025121
 C       -11.1032533929        1.3128437516       -3.3087668660
 O       -11.7844364823        2.2009916572       -2.8914870348
 C        -9.5635041935        1.4577322180       -3.2229362941
 C        -9.1787653589        2.7962439603       -2.6186226211
 C        -9.7041787055        3.0222481031       -1.2833252374
 O       -10.4026454643        3.9656308551       -1.0453740741
 C        -9.1028780638        2.1667195443        0.0630240676
 C        -9.7177063166        2.7859014229        1.3632566765
 O        -9.2860088698        3.8613940940        1.7984512686
 C       -10.7996913127        2.0271141920        2.1998514572
 C       -11.2842148398        2.9912962728        3.3082416931
 C       -12.5930485060        3.7007441569        2.8685374726
 O       -13.4002806605        3.0820209937        2.2339106170
 C       -12.8180559276        5.2420324903        3.3098985091
 C       -11.8987670506        6.1024585585        2.3453609173
 O       -10.7007959893        6.2431030127        2.6577956457
 C       -12.5030657819        6.7265792426        1.0551109583
 C       -11.8188285248        8.0871812764        0.7657216685
 C       -11.0455007538        8.0359566147       -0.5774939279
 O       -10.6133927547        7.0220787785       -1.1118205007
 C       -10.6793330651        9.4973052010       -1.2368906070
 C        -9.7280433333       10.3104306198       -0.2179701939
 O       -10.2648718040       10.9410517251        0.6475436608
 C        -8.2167866291       10.2982719245       -0.6163118993
 C        -7.3969026920        9.8733654002        0.6434076159
 C        -7.6803080960        8.4284864868        1.1819924739
 O        -8.8213298831        8.0105768011        1.0867811890
 C        -6.4752837116        7.5482004636        1.7647362481
 C        -6.1081327032        6.6208884951        0.5327411841
 O        -7.0119585236        6.0740371849       -0.1131507410
 C        -4.7136021492        6.6184741742        0.0763835760
 C        -5.2500016219        8.3499061539        2.2936788673
 C        -7.0345779415        6.6755373781        2.9120266802
 C       -10.0366229615        9.2051527974       -2.6235809768
 C       -11.9744317340       10.2964463958       -1.4730385965
 C       -14.3186189252        5.5191282552        3.1535488304
 C       -12.2747620049        5.4771923755        4.8032459412
 C        -9.5287311919        0.6948392088       -0.0219708448
 C        -7.5352104007        2.2774657521        0.1395797405
 C       -11.6534253568       -0.0335637790       -5.4189414481
 C       -13.2321322177       -0.1076578622       -3.4230246183
 C        -6.5174116464       -2.1633709754       -0.2575057147
 C        -6.8667836236       -4.4939996417       -1.2501574367
 H       -10.2098365914       -4.5204319683       -0.9778587886
 H       -10.2740696244       -4.6510128536        0.8041907218
 H        -9.2151960845       -5.5588880938       -0.1563640956
 H        -9.7911064510       -3.7663708468       -2.7306160286
 H        -8.4363638724       -3.6239882825       -3.7152900803
 H       -10.3105586673       -2.5119372084       -4.9201225772
 H        -9.0762843240       -1.3540732428       -4.4773717861
 H        -9.1778473485        1.4558278433       -4.2309474857
 H        -9.1884251663        0.6268126417       -2.6666173705
 H        -9.3915346166        3.5561809786       -3.3455310443
 H        -8.0277181827        2.7697594353       -2.6487651823
 H       -10.2390818414        1.2439070511        2.7407011606
 H       -11.6333664328        1.6494734514        1.5634404682
 H       -10.4851707906        3.6668672866        3.4945149624
 H       -11.3957865873        2.4003910312        4.2149584340
 H       -13.5919697547        6.9497049690        1.1754202356
 H       -12.4820531578        5.9828271253        0.2415593653
 H       -11.1494614879        8.4369003974        1.5164197215
 H       -12.6747250955        8.7745350292        0.7135277235
 H        -7.9170396976       11.3824570436       -0.7995995452
 H        -8.0231227876        9.5707903741       -1.3901478207
 H        -7.5359738771       10.5433499508        1.4856192838
 H        -6.3197604102       10.0002144610        0.5817767122
 H        -4.7248048128        5.9242932045       -0.7518123214
 H        -3.9394445184        6.4084499616        0.8908511207
 H        -4.3511033612        7.5769241372       -0.2049044014
 H        -4.7142803804        7.8504186259        3.0478264560
 H        -5.6592387368        9.2215872851        2.7386004408
 H        -4.6600210609        8.6825093814        1.4696019437
 H        -6.5198961194        5.6981187909        2.9994000717
 H        -8.0988918589        6.5083541281        2.7691062614
 H        -6.7552491739        7.1603881301        3.8414698699
 H        -9.3707486567        8.3271137663       -2.5871261752
 H        -9.3928421277       10.0098636469       -3.0214344250
 H       -10.7970335950        9.0213427275       -3.3819450413
 H       -11.7939601153       11.2616027200       -1.9193913669
 H       -12.5268341422       10.4917878017       -0.5378354059
 H       -12.5998174006        9.6626616641       -2.1676791873
 H       -14.5789012956        5.4421490256        2.0838875549
 H       -14.4707903073        6.5994623857        3.3962732351
 H       -14.9593978982        4.9183234304        3.8386508748
 H       -11.2479310236        5.3643275920        4.7123808636
 H       -12.8135910629        4.9186078404        5.5343782272
 H       -12.4935596038        6.5067096374        4.9946950955
 H        -9.2890930877        0.1056335113        0.8645513098
 H        -8.9218981197        0.2097275760       -0.8213103912
 H       -10.5193554435        0.6111782930       -0.3962782933
 H        -7.0654438793        1.7647068094        0.9968574359
 H        -7.2793881349        3.3067414142        0.0780150426
 H        -7.1804333275        1.7316011843       -0.7599102701
 H       -10.6508890042        0.0549902369       -5.7910673680
 H       -12.2293401603        0.8189586233       -5.8615125471
 H       -12.0087581062       -1.0356255306       -5.8088587794
 H       -13.5465694841        0.8476544632       -3.0670776413
 H       -13.2408779500       -0.6307208676       -2.5205900519
 H       -13.9553110094       -0.5192006235       -4.1732204719
 H        -5.7646644616       -1.9044719802       -0.9807535344
 H        -6.0015464717       -2.6403916694        0.6007055233
 H        -6.8876962286       -1.1987122230        0.1473094553
 H        -6.5625770133       -5.0575694108       -0.3980704873
 H        -5.8827653937       -4.3472181278       -1.7316469506
 H        -7.4634358055       -5.1677171244       -1.8627280463
 Na       -9.3626247512        5.7255411927        0.5643616231
