117

 C        -9.8142529903       -4.5457366074        0.2091851775
 C        -8.8721095726       -3.3633058589        0.3221457947
 O        -8.8309027474       -2.7673287411        1.3782227781
 C        -7.7732175337       -3.1607341693       -0.8408591857
 C        -8.2855212646       -2.3474628399       -2.0930483607
 O        -7.8924844110       -1.2436511898       -2.3936749977
 C        -9.2551956787       -3.1695887996       -3.0422579172
 C        -9.8975805459       -2.1240419472       -3.9511145071
 C       -10.7692198769       -1.1204025540       -3.1667461354
 O       -10.7631080603       -1.1443410239       -1.9408643538
 C       -11.6370940947       -0.1009878617       -3.9308275396
 C       -11.0866462563        1.2739614023       -3.4109335618
 O       -11.8220472186        2.1475176619       -3.0030276376
 C        -9.5829157567        1.4824330019       -3.3686144458
 C        -9.2616511899        2.7363120684       -2.5492643538
 C        -9.7439342461        2.7962723951       -1.0316330082
 O       -10.2561172294        3.8934968385       -0.7875427042
 C        -9.0126681704        1.9831832787        0.1343336083
 C        -9.4990679034        2.7550047353        1.4258632706
 O        -9.0046744261        3.8518084412        1.5613546294
 C       -10.6190109751        2.1499590516        2.2903406784
 C       -11.1540809355        3.1005391182        3.3739516451
 C       -12.4070471847        3.8106625562        2.8852397135
 O       -13.2233634660        3.2624957487        2.1670017756
 C       -12.8009860954        5.3356721250        3.2766182487
 C       -11.9493193120        6.0864786627        2.3081140089
 O       -10.7453607903        6.1102426042        2.5364006481
 C       -12.5243776935        6.8481002135        1.0960230332
 C       -11.7708746064        8.1638531724        0.8198817350
 C       -11.0371839352        8.1299408831       -0.6087102956
 O       -10.8895353594        7.0435961000       -1.1431555457
 C       -10.6546087958        9.4845711720       -1.2939657906
 C        -9.5978815911       10.1898765348       -0.2962785739
 O       -10.1081787518       10.7441777673        0.7107558899
 C        -8.0630960272       10.3453611403       -0.5976257632
 C        -7.2720068555        9.9978275678        0.6403710723
 C        -7.6531784159        8.5506208469        1.0591993532
 O        -8.7682165270        8.1631599775        0.7030821576
 C        -6.6107869109        7.5779835498        1.6776586320
 C        -6.1223081895        6.5885177598        0.5623119394
 O        -6.9231865629        5.8047269001        0.0913310900
 C        -4.7200242517        6.5726328176       -0.0262360915
 C        -5.5439117910        8.4080616013        2.4679214493
 C        -7.3418938710        6.5946364625        2.6413289980
 C       -10.0702329534        9.2287289657       -2.6923350941
 C       -11.9443087284       10.3341623245       -1.3942554968
 C       -14.3939682922        5.4909479778        3.0858328896
 C       -12.4490930513        5.6696003784        4.8130690672
 C        -9.3527839325        0.4982941538        0.1305339923
 C        -7.5254188188        2.2843739117       -0.1038837858
 C       -11.6642933005       -0.1281021286       -5.4776681782
 C       -13.1226198996       -0.2326587292       -3.4302377593
 C        -6.6713245609       -2.3753644118       -0.1880977415
 C        -7.1905586821       -4.5029754502       -1.2803398653
 H       -10.3284582305       -4.3941167827       -0.8120126537
 H       -10.4335128978       -4.6406108004        1.0771577095
 H        -9.2380842929       -5.5174519697        0.0588245306
 H       -10.0437377260       -3.6276737481       -2.4660402715
 H        -8.6466516582       -3.9918596566       -3.6084394436
 H       -10.4405486113       -2.5956812555       -4.7874163948
 H        -9.0510874574       -1.6445723735       -4.4027755857
 H        -9.2141535109        1.4289222550       -4.4075119924
 H        -9.2299966021        0.6667810124       -2.6934013970
 H        -9.6746730375        3.6292288392       -3.0670755330
 H        -8.2328144331        2.8483253323       -2.6107030307
 H       -10.2303131229        1.2355199920        2.7355831531
 H       -11.4977953148        1.9884961994        1.6751735692
 H       -10.4456830994        3.9165822773        3.7368211253
 H       -11.4198466353        2.4564640293        4.2311620320
 H       -13.6028514247        6.8871534121        1.1029194210
 H       -12.2615058793        6.2218235552        0.2231385920
 H       -10.9020381448        8.1420021214        1.5163363527
 H       -12.3720898339        9.0259887188        1.0618706168
 H        -7.8738924213       11.3466099755       -0.8401223324
 H        -7.8081251968        9.6290818978       -1.4061660021
 H        -7.5097068865       10.6990870793        1.4849190503
 H        -6.1735064381       10.1208562339        0.7030326875
 H        -4.7872052513        6.7729251564       -1.1133985382
 H        -4.2062228844        5.6780552033        0.1886569375
 H        -4.0513040718        7.2734199559        0.5091845345
 H        -4.9463034803        7.6893952050        3.1243087667
 H        -6.1254019861        9.0571275106        3.1958678477
 H        -4.8847017576        9.0140200010        1.7808227939
 H        -6.7951691654        5.6433796833        2.7397581014
 H        -8.2991081660        6.3551112814        2.1660425351
 H        -7.4159812577        7.0584263985        3.6616408577
 H        -9.1162029643        8.7335333590       -2.7806017161
 H        -9.9645356020       10.0968526165       -3.3158096567
 H       -10.7550221188        8.5176790091       -3.1830597299
 H       -11.7606398407       11.3575273471       -1.8779513098
 H       -12.2518407881       10.7040909890       -0.4234722778
 H       -12.6951560852        9.7513219519       -1.8643445213
 H       -14.8037497354        4.9719910146        2.2305533424
 H       -14.6043839553        6.5429683235        2.9991271469
 H       -14.8841286246        5.2291729034        3.9957291022
 H       -11.3806988978        5.9834140915        4.8372246208
 H       -12.7635666625        4.8282541378        5.4215978700
 H       -13.2037109483        6.5010006532        5.0662660327
 H        -8.9740831260        0.0972801061        1.0880137868
 H        -8.9059787993       -0.0360612555       -0.6841600555
 H       -10.4556127965        0.3564383889        0.0619389896
 H        -6.9903033971        1.8372084747        0.7309592982
 H        -7.3493268366        3.4061984641       -0.1633830869
 H        -7.2109281969        1.7578280026       -1.0057939026
 H       -10.6167660685       -0.0932203092       -5.9293502092
 H       -12.0496295429        0.8519105637       -5.7475006418
 H       -12.2035436265       -0.9243886491       -5.9437605379
 H       -13.5909778982        0.7913258955       -3.5121691424
 H       -13.3634201025       -0.4592075230       -2.3441609807
 H       -13.5864208166       -0.9084401301       -4.1260993812
 H        -5.7849067250       -2.2956478186       -0.8375955555
 H        -6.3546596935       -2.8388218220        0.7122505434
 H        -6.9713905118       -1.3890607760        0.0874661842
 H        -6.6884595912       -5.0410436308       -0.4440508546
 H        -6.3357357665       -4.3776095327       -1.9129026229
 H        -7.9189291637       -5.1936666939       -1.7228920086
 Na       -9.4891162764        5.9092402509        0.4932438392
