117

 C       -10.2672633153       -3.8174121084        1.1264647199
 C        -9.0991173599       -3.0537752721        0.6649303752
 O        -8.7028419319       -2.0607450161        1.2562894195
 C        -8.2137510156       -3.6694536079       -0.4546157245
 C        -8.5482338742       -2.8796219013       -1.8224151288
 O        -7.8831694954       -1.8833352056       -2.1555628375
 C        -9.7051719423       -3.6067937542       -2.7430678078
 C       -10.3021787262       -2.6478961713       -3.7004363630
 C       -11.1995576545       -1.5357642053       -3.1141801807
 O       -11.6646277073       -1.5954771218       -1.9804223507
 C       -11.6158211251       -0.2607659440       -3.9234085200
 C       -11.0902646889        1.0668562155       -3.1907738123
 O       -11.8670569296        1.9474344127       -2.8357182290
 C        -9.4843751648        1.2295078814       -3.2151970333
 C        -9.1717817165        2.5568203306       -2.5033179698
 C        -9.4008717896        2.9425940822       -0.9515340186
 O       -10.0693573427        3.9387518239       -0.7586433103
 C        -8.7225160741        2.1150892310        0.2321037622
 C        -9.0580026946        2.9297542441        1.5542397162
 O        -8.5769895983        4.0604078113        1.7043651604
 C       -10.0514528668        2.3980449398        2.6555598758
 C       -10.8670080946        3.4763277139        3.4188847117
 C       -11.9755382268        4.0561524728        2.5241340285
 O       -12.4801512028        3.3745923611        1.6298950719
 C       -12.6990919136        5.3372754482        2.8774428145
 C       -12.1701374769        6.4900851632        1.9781407853
 O       -10.9498577208        6.7655641784        2.0598908100
 C       -13.0628990055        7.1720137411        0.9152840902
 C       -12.5560019080        8.5808452244        0.4945430281
 C       -11.4033025586        8.4490008267       -0.5567373806
 O       -10.8905606794        7.3713138707       -0.8742834966
 C       -10.8618045163        9.7933713947       -1.2486244740
 C        -9.7260351928       10.3158697392       -0.2256696449
 O       -10.0006087842       10.7067278486        0.8467053791
 C        -8.2137686722       10.4123990104       -0.7633923748
 C        -7.1510920977        9.9582898371        0.1906751262
 C        -7.3464181015        8.4414785863        0.4786383109
 O        -8.2725093773        7.8813159100       -0.0401443679
 C        -6.4289482389        7.6408909814        1.5039347950
 C        -5.9896563952        6.3844355643        0.7268851409
 O        -6.8189798828        5.7116502950        0.1403641481
 C        -4.5532508129        5.9596365706        0.6541303757
 C        -5.2762341291        8.5760820665        2.0004648316
 C        -7.3461834487        7.3540850276        2.7016068983
 C       -10.3222073345        9.4206765674       -2.6437261029
 C       -11.9004152377       10.9107451415       -1.4085771105
 C       -14.2732622633        5.1043595586        2.7926637490
 C       -12.3606593487        5.6679927868        4.3633325623
 C        -9.1651438761        0.6723302764        0.2684643249
 C        -7.2004545453        2.2994074177       -0.0305027705
 C       -11.0298221898       -0.2967023532       -5.2905934898
 C       -13.1747116709       -0.1995712698       -3.8747463785
 C        -6.7077606484       -3.4707989866       -0.1021418494
 C        -8.3967192898       -5.1737991414       -0.5893155452
 H       -10.7377598492       -4.3113675980        0.3233047069
 H       -11.0032089630       -3.1652553429        1.5773599825
 H        -9.8743457308       -4.4510924316        1.9093029273
 H       -10.5517541741       -3.9834977520       -2.0771370178
 H        -9.2719868313       -4.4248210335       -3.2772967065
 H       -10.8001577367       -3.0943111959       -4.5140260170
 H        -9.4365831741       -2.2564429994       -4.1807964410
 H        -9.0918431233        1.1745188712       -4.2464567430
 H        -9.0373922811        0.3131523909       -2.7832639908
 H        -9.8472756208        3.2180610965       -2.9977179847
 H        -8.1489276417        2.8052729177       -2.8405310665
 H        -9.4187906680        1.8228564689        3.3419744964
 H       -10.7172330910        1.5973975425        2.2337313983
 H       -10.2736070197        4.3517093723        3.7033842976
 H       -11.4233744595        3.0524187516        4.2709321901
 H       -14.1251957800        7.1837935521        1.2020455386
 H       -12.8548520330        6.4457670636        0.1259048983
 H       -12.1369599311        9.1856877813        1.2549758461
 H       -13.4010349043        9.1756295424        0.1277457963
 H        -8.0085833436       11.4807850681       -0.9388232258
 H        -8.0717743791       10.0742044451       -1.7457453317
 H        -7.3922849587       10.4736520806        1.1741418368
 H        -6.0857247339       10.1695040858       -0.1890547480
 H        -4.2720361742        5.1977920347        1.3606203126
 H        -3.8706075246        6.8170526747        0.5952289607
 H        -4.4161608380        5.3550145555       -0.2519954057
 H        -4.6592713863        8.0632316065        2.6971667416
 H        -5.5988077911        9.4751535686        2.4817037636
 H        -4.7428931556        8.8691581585        1.1297602290
 H        -6.9445129968        6.5401703813        3.3601052691
 H        -8.3991147853        7.0882944147        2.3765868658
 H        -7.4282802422        8.2641183215        3.3370303700
 H        -9.7213994762        8.5089458584       -2.6321461114
 H        -9.7348284482       10.1481903284       -3.2001242440
 H       -11.1168805550        9.2957754116       -3.3602424907
 H       -11.4660836003       11.6446416246       -1.9940191268
 H       -12.3339315752       11.2102620679       -0.4152272613
 H       -12.8462459396       10.6516781069       -1.9933066743
 H       -14.6487850966        4.8118523056        1.7992652730
 H       -14.9414400181        5.8841329037        3.2056210668
 H       -14.3845060649        4.1414685685        3.3341408439
 H       -11.2813428281        5.6383020922        4.5098876003
 H       -12.8003795459        4.7911595636        4.8944654689
 H       -12.8234186642        6.5416989170        4.6198015674
 H        -8.8890260323        0.2049370362        1.2134564879
 H        -8.6164027134        0.1028747403       -0.5025481289
 H       -10.2455324355        0.5999347180        0.2053273153
 H        -6.6809844408        1.9314139818        0.8591665691
 H        -7.0425882797        3.3344551163       -0.1730146583
 H        -6.8991762798        1.6799222663       -0.9126808161
 H        -9.9630940393       -0.3601790576       -5.2973935492
 H       -11.4446905948        0.5320170569       -5.9040231036
 H       -11.3821981405       -1.2704269875       -5.7526861056
 H       -13.5838012938       -0.6414285450       -4.7599416769
 H       -13.4892933312        0.7700900745       -3.6449800205
 H       -13.5541425785       -0.8178395145       -3.0335829382
 H        -6.0922048371       -3.9155884470       -0.8722470461
 H        -6.4515308594       -3.9946609035        0.8514458350
 H        -6.4754053277       -2.3895937267       -0.0395039472
 H        -7.8218617308       -5.6195239639        0.1817320106
 H        -8.0088311571       -5.4615060360       -1.5810773420
 H        -9.4034370045       -5.5681663931       -0.4996342631
 Na       -9.3069492412        5.8650688617        0.2666937277
