117

 C       -10.3946962610       -3.7837687396        1.2514800701
 C        -9.0018348598       -3.1044509395        0.8743469719
 O        -8.5961710750       -2.0910815684        1.3759288313
 C        -8.2329814465       -3.7434798191       -0.4300647970
 C        -8.6054313993       -3.0141555261       -1.7818297690
 O        -7.9726367907       -2.0575160839       -2.1218736006
 C        -9.6569309321       -3.4937652737       -2.6561689855
 C       -10.3086640042       -2.5362561881       -3.7059147897
 C       -11.2417539082       -1.5134444634       -3.0384545399
 O       -11.7516270457       -1.7728576035       -1.9831846233
 C       -11.6532629879       -0.2913854129       -3.9829910549
 C       -11.0688358332        1.0569269691       -3.2198429752
 O       -11.8464548194        1.8083464364       -2.7247845427
 C        -9.6186777536        1.2504375057       -3.0632895568
 C        -9.0601166502        2.5414294590       -2.5078221727
 C        -9.3734860384        2.9493323867       -1.0653104787
 O       -10.0779112012        3.9369972302       -0.9309741801
 C        -8.6887976040        2.2864395467        0.2370971680
 C        -9.1065769834        3.1215463439        1.5439761916
 O        -8.6287798559        4.2104117236        1.8149653254
 C        -9.9928587470        2.4352952856        2.6010945505
 C       -10.8147953622        3.5328898175        3.2724170167
 C       -12.0573467285        3.9963131939        2.4275195576
 O       -12.4051969457        3.4121602405        1.4342834243
 C       -12.7215299813        5.2996756843        2.9578520633
 C       -12.1184593823        6.4955489133        1.9352240198
 O       -10.9477793751        6.7719167743        2.0632834674
 C       -13.0706524444        7.1531629515        0.9417577894
 C       -12.5193964211        8.4476224406        0.4521923584
 C       -11.4209546766        8.4663180161       -0.5583292022
 O       -10.8160983585        7.3897483383       -0.8453057416
 C       -10.8771119147        9.7616073040       -1.2333586000
 C        -9.7379658798       10.2987962408       -0.2955857067
 O       -10.0069007691       10.6604918054        0.8264565149
 C        -8.3131118170       10.4422318111       -0.8056100611
 C        -7.2531124156       10.0183025292        0.1771099300
 C        -7.3363641799        8.5180772366        0.4816709896
 O        -8.2178534779        7.8933028546       -0.0836188311
 C        -6.3416722157        7.7940673766        1.4437790293
 C        -5.9312315163        6.3983441918        0.7012491716
 O        -6.8047407387        5.8422535572        0.0721113927
 C        -4.5029074667        5.7860357279        0.7559801557
 C        -5.1498050418        8.6693082993        2.0125908559
 C        -7.1942446609        7.3714905863        2.6952132020
 C       -10.3390389162        9.4574342833       -2.6040001998
 C       -11.9610857090       10.8418599808       -1.3285650507
 C       -14.1865637485        5.1511221241        2.7529126698
 C       -12.4200386289        5.6928810290        4.4389233626
 C        -9.2009324274        0.8490638965        0.2287296742
 C        -7.0834718119        2.1890723129        0.1578714566
 C       -11.0884201585       -0.3016074591       -5.4184149282
 C       -13.1855625307       -0.2824724652       -4.0057419660
 C        -6.7539988337       -3.5012558607       -0.1319710954
 C        -8.5665512074       -5.2762882262       -0.6019935683
 H       -10.9494042713       -4.0772758147        0.2998803614
 H       -11.0477367077       -3.2126491119        1.8680488794
 H       -10.0229689867       -4.6520559547        1.8715100248
 H       -10.5483270496       -3.8346566553       -2.0552353411
 H        -9.2454369970       -4.4277823371       -3.1977684735
 H       -10.9560859743       -3.0844957236       -4.3535258548
 H        -9.5029141359       -2.2087390575       -4.4076229654
 H        -9.2675430544        1.1305725155       -4.1452887633
 H        -9.1112991579        0.3619137840       -2.6670380759
 H        -9.3151141798        3.3337636188       -3.1543680681
 H        -7.9963832454        2.3356722680       -2.6401373365
 H        -9.3897172563        1.8578712406        3.3050906116
 H       -10.6062579071        1.6728898818        2.1503176542
 H       -10.2280548696        4.4328534600        3.5013272918
 H       -11.3481059821        3.1303898513        4.1961829793
 H       -13.8701195551        7.4739751873        1.6209819894
 H       -13.4171641815        6.4545536256        0.2122402403
 H       -12.2185687405        9.1709091217        1.2335819739
 H       -13.4051529541        8.9488161944       -0.0134452449
 H        -8.1088550064       11.4279227612       -1.2216242298
 H        -8.1750283951        9.8374066397       -1.6870980601
 H        -7.3496145132       10.5130902525        1.1543248091
 H        -6.2706496830       10.1658057745       -0.3195071733
 H        -4.5436927174        4.9593318465        1.5038601057
 H        -3.7033904524        6.4271784463        0.8769369306
 H        -4.3404489130        5.1049095244       -0.1106252922
 H        -4.6709160207        8.0193233391        2.7584014496
 H        -5.3536673702        9.6086635411        2.5482522030
 H        -4.4808753674        8.8876055718        1.1719427820
 H        -6.7595505109        6.5328925978        3.3058294725
 H        -8.1706279068        7.0631515057        2.2661781538
 H        -7.3962539535        8.2092537843        3.4023848552
 H        -9.7132265025        8.5599067726       -2.5993395667
 H        -9.6614016972       10.2140062555       -2.9841040369
 H       -11.0525917208        9.4124175780       -3.4031656707
 H       -11.5408272445       11.7744972878       -1.8020901270
 H       -12.4833907939       10.9488090769       -0.3663754966
 H       -12.7653445764       10.5844534796       -1.9933663858
 H       -14.3389955184        4.9249240789        1.6887325397
 H       -14.8401034056        5.9853041491        3.0075137423
 H       -14.5189040374        4.2056726742        3.2635946804
 H       -11.3054838844        5.6470400242        4.5066376824
 H       -12.8804755437        4.9044074619        5.0702375753
 H       -12.9044728464        6.6786036108        4.6693060329
 H        -8.9484054978        0.2374003823        1.0662545839
 H        -8.7547113071        0.3336586059       -0.6185324694
 H       -10.3153860646        0.9244251109        0.1078588895
 H        -6.7587108487        1.6361984069        1.0425509573
 H        -6.6458857520        3.2052966481        0.1244640739
 H        -6.8424826287        1.5450199825       -0.6944680634
 H        -9.9940004008       -0.6191903262       -5.4543823268
 H       -11.2643843534        0.6798386623       -5.8592282105
 H       -11.6200384140       -1.0558325488       -6.0493394908
 H       -13.4767822964       -1.1246929802       -4.6641738584
 H       -13.5587885319        0.7486818098       -4.3014793758
 H       -13.6286431452       -0.5258857939       -3.0597028801
 H        -6.0957958737       -3.9166320318       -0.8996336882
 H        -6.5465656432       -4.0238667827        0.8042071300
 H        -6.5801166030       -2.4447816813       -0.0321395356
 H        -8.2382305950       -5.8045190860        0.3113500658
 H        -8.0601686074       -5.6848229789       -1.4976529538
 H        -9.6483561365       -5.4429637826       -0.6908932193
 Na       -9.3223429400        5.8776390343        0.2479690039
