117

 C       -11.2246195603       -2.8824736863        1.9735363947
 C        -9.9754548084       -3.7890128875        1.6577918819
 O        -9.1586807989       -3.9948393051        2.5185047689
 C        -9.8693917693       -4.4347400002        0.2106812748
 C       -10.2539175991       -3.2893233435       -0.7362427500
 O        -9.4768030304       -2.3781258085       -0.9635794056
 C       -11.5510706802       -3.2359196980       -1.5067197642
 C       -11.5261581848       -2.0691141800       -2.4724194103
 C       -11.6202105901       -0.6978831254       -1.7525902316
 O       -11.7390912198       -0.5964766443       -0.5607399284
 C       -11.6790310864        0.6302987049       -2.6686073303
 C       -10.4976988917        1.5818605637       -2.3169930817
 O       -10.4715183846        2.2606816763       -1.2800828856
 C        -9.2532568866        1.6909572076       -3.2275787774
 C        -8.0897608870        2.4252398294       -2.4758025874
 C        -8.4355644889        3.1153785099       -1.1381539988
 O        -8.5693687943        4.3328706697       -1.2348211328
 C        -8.2797762634        2.3396987181        0.2354524004
 C        -9.3104384810        2.8215109031        1.2434860007
 O        -9.6866411297        3.9839109802        1.2078100123
 C        -9.9306783747        2.0032677545        2.3968242243
 C       -10.9464459537        2.8647331526        3.1183979249
 C       -11.8804707886        3.7710262429        2.1938894674
 O       -12.3918220709        3.2938113242        1.1546180433
 C       -12.1071422464        5.3250686937        2.4873690656
 C       -11.3853762594        6.2014592386        1.4306932807
 O       -10.4321167315        6.7834439652        1.8932217439
 C       -12.0619530167        6.3098345616        0.0309358425
 C       -11.7160015111        7.6325820162       -0.6378974314
 C       -10.6167092563        7.5980243371       -1.7651661173
 O        -9.8010874214        6.7309770038       -1.7457170879
 C       -10.5334683440        8.7781864020       -2.8486075953
 C        -9.3384092316        9.7595495080       -2.2239115724
 O        -9.5207793460       10.9020309353       -1.8635674983
 C        -7.9221601745        9.1859087557       -2.2758947483
 C        -7.0686844285        9.6133591201       -1.0139664744
 C        -7.5215517396        8.8286351621        0.1725699103
 O        -8.6519003145        8.3335573196        0.2859162823
 C        -6.5737107615        8.6220851724        1.3748625450
 C        -5.7714399512        7.3018133836        1.0448039344
 O        -6.3006396340        6.2120537977        1.1717533095
 C        -4.3716363919        7.4148899605        0.5499376308
 C        -5.5905371146        9.8344606747        1.5465144168
 C        -7.3403583318        8.4153452207        2.7152829716
 C       -10.1052108232        8.2040310830       -4.1565664804
 C       -11.8765827427        9.5548594702       -2.9220906584
 C       -13.7220061994        5.5376297394        2.4949122759
 C       -11.5029870985        5.6615001012        3.8318935778
 C        -8.4275126224        0.7092590575        0.1569419972
 C        -6.8388242278        2.6156861213        0.8324006985
 C       -11.8209392585        0.3296275239       -4.1671615295
 C       -13.0120798356        1.2457052042       -2.1903350593
 C        -8.4304463957       -5.0056830110        0.0084394192
 C       -10.9565601277       -5.5353135045        0.2215684323
 H       -10.9517293295       -2.4250842871        2.9324000857
 H       -12.0246682926       -3.5547815518        2.1525720832
 H       -11.4784370704       -2.0671336673        1.2217573744
 H       -12.2548126354       -3.0733853237       -0.7340641757
 H       -11.7530231247       -4.2412373086       -1.9351549825
 H       -12.4800103099       -2.1915291438       -3.1120398988
 H       -10.7056678452       -2.1621621992       -3.1476117074
 H        -9.5120258290        2.3190473545       -4.1165113322
 H        -9.0051338297        0.7100835089       -3.5696892734
 H        -7.7203856185        3.2438999252       -3.1275299458
 H        -7.2647104991        1.7252985142       -2.2711347802
 H        -9.0947741596        1.7633229850        3.1140108408
 H       -10.3001661241        1.0476852418        2.0344727159
 H       -10.4437751483        3.4912255162        3.8255246583
 H       -11.6545771825        2.2589243453        3.6884622467
 H       -13.1495404693        6.1847127169        0.1284439729
 H       -11.6133916851        5.4864862416       -0.5718816937
 H       -11.4660517461        8.3821924698        0.1374580640
 H       -12.6529519044        8.0420375841       -1.0856438101
 H        -7.4689924677        9.6007763820       -3.1496408561
 H        -7.9619418088        8.0675807070       -2.3106380206
 H        -7.4510148553       10.6174489706       -0.8904185971
 H        -5.9963960729        9.4855229724       -1.2637031865
 H        -4.2229046542        8.0094038935       -0.3505160247
 H        -3.9435888690        6.4854128105        0.4017006385
 H        -3.7119844816        7.7556305087        1.3849330555
 H        -5.1132515310        9.5837821362        2.4611989282
 H        -6.1309708796       10.7531473719        1.6511265522
 H        -4.8887685613        9.8673501726        0.7613915364
 H        -6.7793732488        8.2551420774        3.6129943631
 H        -8.0432316969        7.5761777227        2.6767041879
 H        -7.8923186950        9.3132432512        2.9291286332
 H        -9.3347236090        7.4237766362       -4.1248600197
 H        -9.7391158572        9.0059600243       -4.8205854347
 H       -11.0361981705        7.7828303838       -4.5980409915
 H       -11.8812497869       10.3441078552       -3.6559246332
 H       -12.1891664545        9.9717277539       -1.9506244303
 H       -12.7073862208        8.8550179590       -3.0939136195
 H       -14.2039922957        4.8409097533        1.8173522126
 H       -13.9345323358        6.5943445723        2.2549758302
 H       -14.1571843818        5.5067247524        3.4833146826
 H       -10.3764491631        5.6569841258        4.0206645439
 H       -11.9670889866        5.0302926668        4.6586587015
 H       -11.8133066022        6.6974512251        4.1406396954
 H        -8.1047979323        0.2218279053        1.1076680372
 H        -7.7766879419        0.3456068339       -0.6173619288
 H        -9.4475100884        0.4131282406        0.1289458004
 H        -6.6693698386        2.0226169019        1.7551809847
 H        -6.7296988697        3.6501884893        1.0504281006
 H        -6.0750211160        2.3268916826        0.0856157946
 H       -11.2040747279       -0.4552701989       -4.4343628200
 H       -11.5286973378        1.2620575561       -4.6722639733
 H       -12.8191436615        0.0354416575       -4.4647721824
 H       -13.2250097893        2.0923391980       -2.7983831739
 H       -12.8042029804        1.6378808974       -1.2123046701
 H       -13.8605242046        0.6013721798       -2.2321357079
 H        -8.3709705370       -5.4907675451       -0.9645936934
 H        -8.3611383789       -5.7946603923        0.7586992798
 H        -7.6873559748       -4.2151143905        0.1727035465
 H       -10.5832621691       -6.4611543226        0.6404851879
 H       -11.2391071914       -5.8832794100       -0.7436198843
 H       -11.8985642486       -5.2532158654        0.7013367079
 Na       -8.7278991124        5.9889915184        0.4577457251
