117

 C       -11.2712245145       -2.9852725554        2.3771192466
 C       -10.0594487383       -3.7072950809        1.7522867377
 O        -9.1461166256       -3.9892228808        2.4500294222
 C       -10.0438531203       -4.2930129270        0.2664847824
 C       -10.3874678978       -3.1962328877       -0.8175602638
 O        -9.6110676147       -2.2924930710       -1.0684750551
 C       -11.8506634052       -3.0285302499       -1.3967479141
 C       -12.0003305775       -1.8157626698       -2.2179481177
 C       -11.6804092975       -0.4520708982       -1.6257031087
 O       -11.4813598921       -0.2297160710       -0.4474577844
 C       -11.8738139546        0.8667041707       -2.5455087480
 C       -10.6081622255        1.7801980477       -2.1843713132
 O       -10.5396043619        2.5079684091       -1.2249978273
 C        -9.3716867232        1.5168483082       -3.0501123165
 C        -8.0267372415        1.9809206468       -2.3719746212
 C        -8.0961062393        2.8867992378       -1.1503729260
 O        -7.8004185639        4.0860381254       -1.2467448509
 C        -8.2335377989        2.2274668181        0.3391451311
 C        -9.3435343108        2.8912545602        1.2510436154
 O        -9.4570503567        4.1073839213        1.3908149047
 C       -10.3166849634        1.9781921288        2.0734733317
 C       -11.1171405336        2.8541323782        3.0571373451
 C       -12.0318783317        3.7768757634        2.2503897602
 O       -12.5466563789        3.3242871790        1.2011351092
 C       -12.2101554059        5.3308623560        2.6288043198
 C       -11.4108537147        6.0739401578        1.5126679128
 O       -10.4197646509        6.7026667336        1.8216001140
 C       -11.8001771240        5.8480356090       -0.0164540070
 C       -11.7544472537        7.0854526608       -0.9050028348
 C       -10.4485914963        7.3590832688       -1.6881648417
 O        -9.4256923612        6.7002622143       -1.5888665251
 C       -10.4044747310        8.3718936870       -2.8207730793
 C        -9.2071465495        9.3464631280       -2.5342004314
 O        -9.4449270641       10.5183122673       -2.3345094473
 C        -7.7174625180        8.9079832733       -2.4589345291
 C        -6.9515655435        9.5141390645       -1.2143141158
 C        -7.5736164220        9.0129007635        0.0652514721
 O        -8.7559343454        8.7602879217        0.2312987314
 C        -6.5888512060        8.8282221913        1.3224990535
 C        -5.7924527149        7.4695268732        1.0184250090
 O        -6.3193787124        6.3634136998        1.0873794451
 C        -4.3443176017        7.6143696482        0.5141933306
 C        -5.7023982421       10.0772517476        1.5860485165
 C        -7.3926123565        8.5498643570        2.5565691740
 C       -10.1709999410        7.6170461614       -4.1594416490
 C       -11.7544834169        9.1328364318       -2.9999882109
 C       -13.7065770319        5.7100749253        2.5170890189
 C       -11.7105807683        5.8120380518        4.0371331790
 C        -8.3221417076        0.6794655453        0.3328154287
 C        -6.8885691918        2.7035954172        0.9692371512
 C       -11.8790970927        0.5229722792       -4.0471653719
 C       -13.2050624524        1.6388241453       -2.2415530957
 C        -8.5036012922       -4.7555142178        0.0504259770
 C       -11.0263120116       -5.4888219586        0.1806144539
 H       -11.2921780344       -3.1941152290        3.3859559435
 H       -12.1092924891       -3.4232867956        1.9556352269
 H       -11.2249001359       -1.9125398576        2.3619413494
 H       -12.5393960509       -3.1358315947       -0.6096207207
 H       -11.9946262124       -3.9179470149       -2.0167462293
 H       -13.1601676347       -1.9193813490       -2.5092801996
 H       -11.5794274669       -1.9466145519       -3.2209450568
 H        -9.5475064872        1.9859302970       -4.0850340896
 H        -9.3468360829        0.4332880228       -3.1641675751
 H        -7.2722614766        2.3698926885       -3.0568922272
 H        -7.5833564693        1.0384614131       -2.1226292958
 H        -9.8254419517        1.1194830543        2.5485154212
 H       -11.0107866198        1.5749558152        1.3623877215
 H       -10.4914543308        3.4690437233        3.7218220127
 H       -11.7463087860        2.0948325968        3.5889969337
 H       -12.7480573922        5.3805783977       -0.1667157461
 H       -11.0301597642        5.2003822587       -0.3883771578
 H       -12.1887899181        7.9738447438       -0.4336467594
 H       -12.4504020328        6.8327609634       -1.7293713478
 H        -7.3286192887        9.2252463232       -3.4217850453
 H        -7.5819297060        7.7886718472       -2.4156148338
 H        -7.2068131095       10.5325281230       -1.2318175148
 H        -5.9418813447        9.1842440678       -1.2854801455
 H        -4.1724304344        8.4556838217       -0.1751250917
 H        -3.9101421658        6.7217339139        0.1848783004
 H        -3.6791374320        7.8896086874        1.4078463753
 H        -4.9454776171        9.6204775178        2.1728829521
 H        -6.3072655243       10.8696320394        2.0033699245
 H        -5.1902109509       10.4480942585        0.7235201171
 H        -6.7985670032        8.3649228601        3.4252228323
 H        -8.0388552225        7.6973362756        2.4072205979
 H        -8.0250251356        9.3494405072        2.8487819688
 H        -9.2910481618        7.0095547481       -4.1355040125
 H        -9.9769931586        8.3297686421       -4.9558292493
 H       -10.9903237202        6.9355219960       -4.3660975820
 H       -11.7046360997        9.9605967194       -3.7583837361
 H       -12.0828165799        9.6910440362       -2.0870401200
 H       -12.5944778766        8.4887471035       -3.0680306871
 H       -13.8462689368        5.7403999743        1.4510055165
 H       -13.9786608302        6.7182690576        2.8564886963
 H       -14.3228385533        4.9415874603        2.9661621188
 H       -10.6639662035        5.6966055631        4.1722601042
 H       -12.2811993399        5.2779517609        4.7394688076
 H       -11.8039303610        6.8973280567        4.3121737629
 H        -8.3227131873        0.4032020431        1.4061491972
 H        -7.4737760187        0.3010612760       -0.1884931840
 H        -9.2410020866        0.3212434099       -0.1757678131
 H        -6.9622144008        2.4006372301        2.0255710026
 H        -6.6767197642        3.7253060353        0.7757583775
 H        -5.9914253645        2.1120449198        0.6596726280
 H       -11.1122178076       -0.1255794971       -4.3604824392
 H       -11.9390355240        1.4280751302       -4.6483148982
 H       -12.8513802450        0.0192749341       -4.1141820518
 H       -13.1351448055        2.6616929811       -2.5812177775
 H       -13.4024230209        1.5804032524       -1.1399674814
 H       -14.0145635766        1.1050454164       -2.6629445089
 H        -8.3903381628       -5.1802541749       -0.9110247518
 H        -8.2055049903       -5.4683409223        0.8149785232
 H        -7.9395406319       -3.8423284380        0.1090632336
 H       -11.0340015517       -6.2228895188        0.9853195197
 H       -10.9891125798       -6.0017676371       -0.7995195377
 H       -12.0574478942       -5.0515148143        0.2483462682
 Na       -8.4318133310        6.0253482396        0.2779133063
