117

 C       -11.2933730160       -3.0509665803        2.2932070984
 C       -10.0647790367       -3.7733131270        1.8052479282
 O        -9.0732772491       -3.9090258822        2.5159099273
 C       -10.0679358824       -4.1754304587        0.2587081183
 C       -10.4357678282       -3.0704220614       -0.7208480130
 O        -9.6266911581       -2.2999147411       -1.1716800575
 C       -11.9473881959       -2.9326780762       -1.2661153947
 C       -12.0569070592       -1.6937959861       -2.2485123352
 C       -11.8032371350       -0.2999141565       -1.5672685250
 O       -11.4306955681       -0.1524752440       -0.4093165394
 C       -11.9242625443        0.9459196319       -2.5395882704
 C       -10.6195561780        1.7566951883       -2.1643701874
 O       -10.6491699527        2.5675967215       -1.2953044147
 C        -9.3740584847        1.4278399250       -2.9425553049
 C        -8.0305102204        1.8899258535       -2.3156065519
 C        -8.0669028318        2.7703019629       -1.0703159732
 O        -7.7073766721        3.9468334521       -1.1785985455
 C        -8.0988764937        2.1556925600        0.4774017360
 C        -9.2835989385        2.8643314932        1.2031289015
 O        -9.2832106012        4.0343091205        1.5213663094
 C       -10.4051573222        1.9970436099        1.8941682262
 C       -11.0953354224        2.9010078304        2.9385687176
 C       -12.0863066964        3.8263561221        2.1897949883
 O       -12.7607740689        3.3600113002        1.3393754900
 C       -12.3376418420        5.3432662143        2.5438942663
 C       -11.3368613545        6.0611334087        1.4992768442
 O       -10.3165474095        6.6753013475        1.8109994911
 C       -11.7146725511        5.7729159126        0.0549880002
 C       -11.7135670258        6.9265715350       -0.9933987822
 C       -10.4354320159        7.2837337631       -1.7380704713
 O        -9.3897661660        6.6159980608       -1.5887119824
 C       -10.3834475774        8.3494128458       -2.8320296989
 C        -9.2134015248        9.3684133268       -2.5860674630
 O        -9.4077234187       10.5318111447       -2.3962962029
 C        -7.7227220780        8.8099814023       -2.5614565323
 C        -7.0279575056        9.4595406484       -1.3573891811
 C        -7.5819587639        9.0652611097        0.0161536119
 O        -8.7304631689        8.8148887035        0.1609308373
 C        -6.5805028469        8.8009709099        1.3345897834
 C        -5.7703702561        7.5852809100        0.9731690200
 O        -6.2588696612        6.4642426963        0.9566288303
 C        -4.3004132067        7.7320070612        0.6125357916
 C        -5.6884879022       10.0665495978        1.5054095114
 C        -7.4069162048        8.5963554636        2.6635581287
 C       -10.0447263780        7.5007899860       -4.1810876525
 C       -11.7377850399        9.1418734835       -3.0035809483
 C       -13.7944530070        5.7598157714        2.5798434010
 C       -11.8157610516        5.7347958450        3.9785421051
 C        -8.1833194221        0.6883031760        0.3633633232
 C        -6.8238059888        2.7136365514        1.1494996111
 C       -11.8868175985        0.5389550662       -4.0615687040
 C       -13.2254163617        1.6864394482       -2.1024284928
 C        -8.6529711243       -4.7567170595        0.0259471283
 C       -10.9780972706       -5.3750503296        0.1529474696
 H       -11.5947874495       -3.3222901335        3.2873515281
 H       -12.1091638434       -3.3594815610        1.6183235427
 H       -11.0791978445       -2.0290279927        2.3836984885
 H       -12.7212793119       -2.9618850444       -0.4862392592
 H       -12.0243820181       -3.8783597882       -1.7744933556
 H       -13.0383555625       -1.8354923531       -2.6776485652
 H       -11.4417519115       -1.7971985899       -3.1246727787
 H        -9.5182897849        1.9895629233       -3.8743174301
 H        -9.3637215699        0.3733200226       -3.1965915343
 H        -7.4867252214        2.5434387106       -3.0556657785
 H        -7.3513066530        1.0457737637       -2.3304213149
 H        -9.8870870221        1.1718495381        2.4302522050
 H       -11.1104155425        1.5283243633        1.1898533418
 H       -10.3363640232        3.4874518013        3.4264246270
 H       -11.6178728630        2.2591718732        3.5861417159
 H       -12.7542164286        5.3868692003        0.0617964478
 H       -11.0658256312        4.9234622329       -0.2390862100
 H       -12.0467084842        7.8390165194       -0.4042296752
 H       -12.4958551578        6.7277414741       -1.7264976989
 H        -7.2117057464        9.0568073749       -3.5221561016
 H        -7.6913469067        7.7373614905       -2.4982262809
 H        -7.3269110023       10.5204112342       -1.4965845905
 H        -6.0085844472        9.1496424832       -1.4490650166
 H        -4.0545018132        8.4971773455       -0.0959703169
 H        -3.9238190440        6.7203979022        0.3146324798
 H        -3.6843439922        7.9795411912        1.4577431217
 H        -4.9989297370        9.8541243653        2.2597511229
 H        -6.3352959972       10.8848661290        1.6348440128
 H        -5.1000431514       10.2506572873        0.6559333758
 H        -6.7522921878        8.5837647531        3.5311910319
 H        -8.0455282106        7.7452279421        2.6858639226
 H        -8.0698362130        9.4297997924        2.8245489943
 H        -8.9736708975        7.2400368988       -4.2265734201
 H       -10.1825492041        8.0868648507       -5.0985832624
 H       -10.5479001446        6.5510211410       -4.2445042927
 H       -11.6296969908        9.8741270641       -3.8551601564
 H       -12.1641434526        9.7412089662       -2.2016988800
 H       -12.5289541973        8.4599245428       -3.2053785374
 H       -14.1598162095        5.8676879011        1.5688548128
 H       -13.8849126567        6.7644508277        2.9671655681
 H       -14.3423641022        4.9842979605        3.1269655980
 H       -10.7283564911        5.4660428205        4.0437702076
 H       -12.4432198026        5.2134255204        4.7534637176
 H       -11.7400232794        6.8082727543        4.3020892476
 H        -8.1374645577        0.3513571953        1.3621592105
 H        -7.4090471652        0.2545632443       -0.2592533781
 H        -9.1591872126        0.4646889131       -0.1423603263
 H        -6.7419749729        2.3825071772        2.1650469097
 H        -6.8065741224        3.7914536834        0.9693942701
 H        -5.9074634937        2.3324701486        0.6821302584
 H       -11.1281309565       -0.2390870728       -4.2588445791
 H       -11.6366594353        1.3591629545       -4.6318903041
 H       -12.8840063482        0.2283759999       -4.3277882861
 H       -13.2055807876        2.7033581668       -2.3794367392
 H       -13.3673136752        1.5554919578       -1.0479585960
 H       -14.0341554214        1.1503073648       -2.5005953723
 H        -8.5704998058       -5.1488974844       -0.9709061793
 H        -8.5070580709       -5.5557479897        0.7664266996
 H        -7.9398355692       -3.9642618289        0.1482379659
 H       -10.5999959929       -6.1363514877        0.8024304570
 H       -11.1646901877       -5.7756170457       -0.8732140986
 H       -11.9560270721       -5.1984281766        0.6094380545
 Na       -8.5645128138        5.8805316289        0.2649312885
