117

 C       -11.1668181683       -2.8273596146        2.0038894759
 C        -9.9874058128       -3.7400459106        1.7102835056
 O        -9.0528382513       -4.0195373099        2.4475311679
 C        -9.9560849208       -4.4599548653        0.2833324927
 C       -10.1066527975       -3.3117143431       -0.7572364128
 O        -9.2363444987       -2.4506273714       -0.9257868930
 C       -11.4926844851       -3.3067237616       -1.7013656291
 C       -11.5361187577       -2.0079480704       -2.5432923118
 C       -11.5911244282       -0.6839569635       -1.7796919738
 O       -11.6910928437       -0.6793709160       -0.5737148654
 C       -11.7092529258        0.5792903111       -2.6743466353
 C       -10.5126834630        1.4491138108       -2.2988729148
 O       -10.6563198238        2.1420560432       -1.2972288307
 C        -9.2632445381        1.6047042544       -3.1859387270
 C        -8.1104167370        2.3869534569       -2.6077439781
 C        -8.3740564636        3.0735367760       -1.2165527220
 O        -8.4375778108        4.2584981464       -1.1235921845
 C        -8.2479094526        2.2720362966        0.2179049991
 C        -9.3012279772        2.7995476916        1.2932623596
 O        -9.5576323132        3.9951504723        1.3470854821
 C       -10.1054959508        1.9358525251        2.3262022011
 C       -11.0406659067        2.7870138038        3.2157745728
 C       -11.8273840117        3.7567536064        2.2344272770
 O       -12.3765591895        3.2362313687        1.3278358634
 C       -12.2048302205        5.3087894990        2.6507394091
 C       -11.5120183320        6.2104138996        1.5589398217
 O       -10.4923884462        6.7986789572        1.7570754213
 C       -12.0702822155        6.4026760880        0.1236963375
 C       -11.7391614394        7.7552221259       -0.6005659293
 C       -10.6778441061        7.7013731016       -1.7111683231
 O        -9.8923174907        6.7922067240       -1.7702267297
 C       -10.4928592975        8.9197929344       -2.7886341945
 C        -9.3303763759        9.8843571027       -2.2209165381
 O        -9.6479202160       10.9397593808       -1.7132539691
 C        -7.9351427137        9.3027224393       -2.2448518186
 C        -7.0694060854        9.6218821643       -0.9382954559
 C        -7.5191595010        8.8358648571        0.2351946191
 O        -8.5923654223        8.2843749016        0.2311454997
 C        -6.4993436081        8.6060276324        1.4398064964
 C        -5.7205670064        7.2510529205        1.0799878399
 O        -6.4237299627        6.2663349580        1.0107417123
 C        -4.2975308750        7.2696421421        0.6345491152
 C        -5.5363517730        9.8912940606        1.4722181524
 C        -7.3598509909        8.3568662029        2.7338509720
 C       -10.1044219744        8.3976567790       -4.2270656612
 C       -11.8104347806        9.7258944909       -2.9648581404
 C       -13.7060110527        5.5052767405        2.4955371876
 C       -11.6456888693        5.6534730242        4.0122635966
 C        -8.2551530383        0.7311992257        0.0878447394
 C        -6.8480577536        2.6998810278        0.6405244580
 C       -11.7459550297        0.3567921374       -4.2286711007
 C       -13.1070056561        1.2537680712       -2.2667574256
 C        -8.5631194632       -4.9626938255        0.0986373689
 C       -10.9164844570       -5.6582644561        0.1886077546
 H       -11.0616173350       -2.3321538672        2.9547551090
 H       -12.0639919850       -3.3820196040        1.9173766388
 H       -11.1112519572       -2.1236639502        1.2311326830
 H       -12.2983031144       -3.3330232294       -0.9845865049
 H       -11.4734121272       -4.2329027666       -2.2552251880
 H       -12.2534019798       -2.1060666551       -3.4035499938
 H       -10.4410079127       -1.9254025843       -3.0026114975
 H        -9.6820632981        2.1506144179       -4.0655204615
 H        -8.9004568661        0.6020516525       -3.5712145196
 H        -7.7263375912        3.0733439777       -3.3068342460
 H        -7.3613130470        1.6193819505       -2.3316848144
 H        -9.3547126012        1.4266092511        2.8978665820
 H       -10.6180938896        1.1648629043        1.7467673487
 H       -10.5225151116        3.3146220540        4.0458804835
 H       -11.8889232567        2.2189955416        3.7043628396
 H       -13.1430297889        6.3139580468        0.1189496023
 H       -11.6094524950        5.5760202062       -0.3873923664
 H       -11.3716179207        8.4418711225        0.1480001103
 H       -12.6769124307        8.2549832871       -0.9473760969
 H        -7.3314639263        9.7116026134       -3.0693391694
 H        -8.0019495740        8.2029044791       -2.2900572820
 H        -7.0886776230       10.6731098847       -0.8282630834
 H        -6.1218568545        9.2118893155       -1.2365159091
 H        -4.3129049596        7.7014293524       -0.3675442754
 H        -3.8244334840        6.2504681383        0.5289899412
 H        -3.5875202450        7.7288549207        1.2573284228
 H        -4.8742403549        9.8042998781        2.3101181546
 H        -6.1062934363       10.7747738740        1.6555645043
 H        -5.0555357472        9.8742403498        0.5260916670
 H        -6.8713166127        8.1521584269        3.6502592828
 H        -8.0314693051        7.5453887797        2.6379365492
 H        -7.9182806496        9.2508636393        2.9174874796
 H        -9.1330853380        7.9390885425       -4.4138240231
 H       -10.2266313031        9.2386091730       -4.9186672153
 H       -10.9322434124        7.7229173787       -4.5003846028
 H       -11.6327739576       10.3058039852       -3.8358608448
 H       -12.2701898075       10.3448735000       -2.1712084781
 H       -12.6793495711        9.0095511208       -3.2634659178
 H       -14.0376648203        4.9978567021        1.5880825742
 H       -13.9146806354        6.5581662781        2.5900007297
 H       -14.2767629783        5.1137362592        3.3288336035
 H       -10.5377418210        5.5507439938        4.0430824303
 H       -11.9878463826        5.0474179451        4.8837104231
 H       -11.8549144199        6.6480790781        4.2923128187
 H        -8.0156070910        0.1022824112        0.9691611409
 H        -7.5062926133        0.5010754824       -0.6751224241
 H        -9.2519304361        0.4493674078       -0.1031038413
 H        -6.7095132097        2.3824725604        1.6931964313
 H        -6.7942631205        3.8285667144        0.6666268044
 H        -6.0791408968        2.2888856911       -0.0034581657
 H       -10.9865909116       -0.3460815971       -4.5198038950
 H       -11.5023796181        1.3337054793       -4.6442615630
 H       -12.6322976449        0.0014762530       -4.6420893467
 H       -13.1142575001        2.2415708164       -2.7074122476
 H       -13.1868966966        1.4173987635       -1.2525523346
 H       -13.9691744942        0.7573080499       -2.7586384250
 H        -8.4627702855       -5.5088846035       -0.8440951780
 H        -8.4142176456       -5.6245968881        0.8984186376
 H        -7.9189987411       -4.1077034778        0.2086228473
 H       -10.4877545885       -6.5353379128        0.7253669920
 H       -10.9455166261       -6.0927865490       -0.7983075967
 H       -11.9574517350       -5.5242175911        0.4594234931
 Na       -8.8293720421        5.9933184586        0.3303300012
