117

 C       -11.0458044763       -3.5018357494        2.7433086504
 C       -10.1324548858       -3.1516164873        1.5508482380
 O        -9.2820805269       -2.2852449176        1.7796686264
 C       -10.4177785534       -3.8442294555        0.1789627668
 C       -10.9053937577       -2.6919501944       -0.7775583881
 O       -10.0661632751       -1.9367463795       -1.1218851283
 C       -12.4239570483       -2.4318000059       -1.0753785031
 C       -12.8088572768       -1.2174734427       -2.0077357746
 C       -12.2014131850        0.0491816456       -1.2565917679
 O       -11.8909354305        0.0106607756       -0.0727035227
 C       -12.0356465546        1.3629163086       -2.0764897495
 C       -10.6052003435        1.8449474831       -1.8204373153
 O       -10.3939301985        3.0104591201       -1.5400410885
 C        -9.4358441023        0.8642152230       -1.8298557717
 C        -8.0147780075        1.5169466481       -1.5185970554
 C        -7.9166098141        2.3700088678       -0.2402971466
 O        -7.7386428520        3.5766129431       -0.3320327653
 C        -7.8469295782        1.7718092643        1.2409644687
 C        -9.0941555957        2.5658872533        2.0564124012
 O        -8.8295725706        3.5227051030        2.7337694885
 C       -10.5388928932        1.9753138698        2.0815536714
 C       -11.5277202596        2.8985834311        2.9352594915
 C       -12.3536742787        3.8490821990        2.0944210256
 O       -13.1867300052        3.4669617413        1.3083285768
 C       -12.1878345522        5.4622880657        2.2179985334
 C       -11.0992585934        5.7006605801        1.1373874882
 O        -9.9982231869        6.0876744285        1.5445449194
 C       -11.4010540771        5.5900664207       -0.3142223220
 C       -11.2115608689        6.9085073080       -1.1238987505
 C       -10.1478621268        6.7629101541       -2.2236270970
 O        -9.2197207860        5.9058830964       -2.1631753851
 C       -10.2592619576        7.7214259018       -3.4366140247
 C        -9.3175416683        8.9705276978       -2.9889480837
 O        -9.9287241066        9.9341049654       -2.5505268168
 C        -7.8126427227        8.8639634788       -3.0980338695
 C        -7.2069449289        9.5578401536       -1.8824511109
 C        -7.4403313702        8.8306503664       -0.5306133225
 O        -8.3421565771        8.0137658667       -0.5752205873
 C        -6.5582278264        9.1309883155        0.7155978506
 C        -5.5676101550        7.8569190006        0.9736753343
 O        -5.9912180123        6.7311085776        0.8606828529
 C        -4.1453791600        7.9990072612        1.4703078341
 C        -5.6717255649       10.4474268425        0.6285287761
 C        -7.5232077749        9.1649025702        1.9195328224
 C        -9.7056122547        7.0066000706       -4.7344887584
 C       -11.6959490663        8.2124668325       -3.6775609206
 C       -13.4656274438        6.1664747437        1.8662263705
 C       -11.6158912948        6.0925628987        3.5863152584
 C        -7.9954247466        0.2575146920        1.4114787620
 C        -6.5602247896        2.2491687942        1.8499980452
 C       -12.2814768002        1.0637074831       -3.5977150383
 C       -13.0304890126        2.4383465739       -1.5821468548
 C        -9.0668758765       -4.2616677841       -0.4197208986
 C       -11.3328215384       -5.1191387335        0.3116125010
 H       -10.8112568832       -2.7202214223        3.5028948610
 H       -10.7270344219       -4.4739538311        3.2220973961
 H       -12.0379387904       -3.7956228377        2.5318340310
 H       -12.7850824516       -2.2727456321       -0.0488353348
 H       -12.8846115596       -3.3732711150       -1.4728862065
 H       -13.8801658654       -1.1885881684       -1.9845102417
 H       -12.4481460294       -1.4752030687       -3.0640006034
 H        -9.3609839662        0.3290550210       -2.7857230734
 H        -9.5657551210        0.0758660702       -1.1522022814
 H        -7.7297584819        2.0891861093       -2.4297640453
 H        -7.4477448204        0.6133366608       -1.3269257948
 H       -10.5552060565        0.9553051978        2.5468128485
 H       -10.9088065936        1.8928556275        1.0398140769
 H       -11.0012253577        3.4553949271        3.7021736561
 H       -12.1010019374        2.1952746495        3.4910984085
 H       -12.4327277453        5.1511081391       -0.4013976486
 H       -10.7223572640        4.8450181587       -0.8433360910
 H       -10.9360810215        7.7138654467       -0.4075041461
 H       -12.1314811219        7.2274979356       -1.5822872439
 H        -7.5211804708        9.3083779153       -4.0613216115
 H        -7.6497159560        7.7902037776       -3.1945633112
 H        -7.4462381824       10.6492712139       -1.7809734122
 H        -6.0918696860        9.6712014061       -1.9442239832
 H        -3.5377799704        8.7392257736        0.9948539304
 H        -3.5858576595        7.0448575949        1.2796809127
 H        -4.1941633878        8.1949043221        2.4948344398
 H        -5.3327049312       10.8481132992        1.5696719566
 H        -6.2569723744       11.2283142689        0.1992224460
 H        -4.8055240952       10.3759400730       -0.0102775428
 H        -6.9675892718        9.1732595664        2.8556097499
 H        -8.1325395493        8.2951004442        1.9006042914
 H        -8.0908232631       10.0834233508        1.8860336493
 H        -8.6194981142        6.8087657515       -4.7308265332
 H        -9.8075138026        7.6996713646       -5.5837751940
 H       -10.1346461846        6.0610152962       -5.0154422884
 H       -11.7071584234        8.8248946536       -4.5955940572
 H       -12.1106621239        8.8518541204       -2.9086269057
 H       -12.3964752702        7.3771518206       -3.7726015465
 H       -14.0531418934        5.5989045763        1.1689467879
 H       -13.2582309191        7.1635018675        1.5538362102
 H       -13.9635378819        6.4068572880        2.7876319577
 H       -10.5003930389        5.8752985424        3.6453001131
 H       -12.1630567363        5.6673841524        4.5253861845
 H       -11.6793387765        7.1773520041        3.4769797074
 H        -8.0126504101       -0.0411605540        2.4196030185
 H        -7.0709089694       -0.0843139363        0.9456744879
 H        -8.8963114998       -0.1968223797        0.9659252156
 H        -6.4848306747        2.1179551154        2.9230160916
 H        -6.4893330790        3.3688066605        1.7635788698
 H        -5.7013670062        1.7671027598        1.3698836622
 H       -11.6658007764        0.2448068511       -4.0147332312
 H       -12.1095480716        1.9424125600       -4.1055900908
 H       -13.2808734489        0.7507356550       -3.8194972685
 H       -13.0252645090        3.2634951396       -2.2591401151
 H       -12.6903048693        2.8124869102       -0.6758279715
 H       -14.0245540747        2.0406593444       -1.5745583818
 H        -9.1296343636       -4.6997292329       -1.3935049495
 H        -8.5900619676       -4.9843790904        0.2368698778
 H        -8.4230627670       -3.4029295478       -0.4007630684
 H       -10.8604276348       -5.8034217269        0.9944099974
 H       -11.2911631389       -5.6340625123       -0.6781702031
 H       -12.3746754158       -4.8872779752        0.5193134719
 Na       -8.0971522379        5.6279088311        0.1463529126
