117

 C       -11.4230028340       -3.2288538309        2.4992766815
 C       -10.0735100487       -3.4923850783        1.6966386547
 O        -9.0241732350       -3.3385490202        2.2130210258
 C       -10.1396834949       -4.1563543983        0.2377844968
 C       -10.6296013005       -2.9422069162       -0.7442631955
 O        -9.7854045603       -2.1578798209       -1.1397324551
 C       -12.1244509579       -2.6453428887       -1.0561853082
 C       -12.3670176985       -1.3750727836       -1.8290924218
 C       -11.9348614990       -0.0559389192       -1.2228932719
 O       -11.6495171527        0.1695925548       -0.0793161051
 C       -11.8878504051        1.2293598052       -2.2099071222
 C       -10.4892322303        1.8610922948       -2.0209867403
 O       -10.3450163736        3.0343485866       -1.6292467165
 C        -9.2461323015        0.9654415521       -2.2358052289
 C        -8.0624236835        1.8205739306       -1.9013764403
 C        -8.0672216171        2.6568919632       -0.6610916280
 O        -7.8396648398        3.8363626417       -0.7472361026
 C        -8.0729926600        2.0227265760        0.7644202279
 C        -9.1249260429        2.7444784212        1.5949970966
 O        -8.7433335587        3.7752527204        2.1563202631
 C       -10.5549960844        2.1482992619        1.6532742832
 C       -11.5002278452        2.6422616075        2.7430048935
 C       -12.5448871751        3.6712022107        2.1738750412
 O       -13.6125340371        3.3923787418        1.5722858007
 C       -12.2094230265        5.1995383960        2.3578346810
 C       -11.2167112736        5.6726009860        1.2232411661
 O       -10.1617388376        6.1316401085        1.6595234475
 C       -11.5942044429        5.6949467889       -0.2580540492
 C       -11.3558050245        7.1101060679       -0.8388709639
 C       -10.2561912818        7.0762228689       -1.9048445484
 O        -9.3428884589        6.3167716428       -1.8706863727
 C       -10.3158142669        8.0181127868       -3.1016101926
 C        -9.2145771360        9.1369816013       -2.8143359530
 O        -9.6536195832       10.2452715532       -2.5661515906
 C        -7.7448722616        8.7335307184       -2.7224694726
 C        -7.0452543495        9.4339633293       -1.6023554729
 C        -7.6024611951        9.0153749616       -0.2059317271
 O        -8.6670512965        8.4113181056       -0.1432993930
 C        -6.6175698753        9.0224812324        0.9881168345
 C        -5.5654448214        7.7882784341        0.7307771358
 O        -5.9733729215        6.7177850816        0.3042091126
 C        -4.1614456168        7.9470002250        1.3573234499
 C        -5.8475203629       10.3449687038        1.0716643622
 C        -7.3910087602        8.7856498128        2.2861712184
 C        -9.9662980118        7.2362416280       -4.4176401091
 C       -11.6546719990        8.7551752442       -3.3086067285
 C       -13.5746671425        5.9546281239        2.0752746793
 C       -11.7153837789        5.3994766425        3.7591082694
 C        -8.2245428464        0.4472109212        0.7672204479
 C        -6.6817447954        2.3014730300        1.3369914065
 C       -12.1078962431        0.9486241345       -3.7521124753
 C       -12.9386205959        2.2539296933       -1.7631901473
 C        -8.7218374910       -4.6309031727       -0.1499906477
 C       -11.2276323715       -5.2271847758        0.1032666484
 H       -11.1819559252       -3.2145050939        3.5632405737
 H       -12.1133165190       -4.0115984347        2.3765613175
 H       -11.9449073744       -2.3085199094        2.2071740658
 H       -12.5133599604       -2.6272162186       -0.0092146667
 H       -12.4829935872       -3.5292984606       -1.5774317333
 H       -13.3519167378       -1.3082992838       -2.1128579397
 H       -11.8611849075       -1.5369263934       -2.7716463954
 H        -9.1431747249        0.5741992491       -3.2135456979
 H        -9.4127140494        0.1092604107       -1.5222239570
 H        -7.9809345718        2.4546766412       -2.7935104837
 H        -7.0697756331        1.2539388140       -1.8699846753
 H       -10.3108164836        1.0912511149        1.7899746716
 H       -11.0221264488        2.2114647204        0.6306701398
 H       -10.8880788859        3.0698118283        3.4967793225
 H       -12.0548321906        1.8268978457        3.1330006930
 H       -12.6394157871        5.3543929453       -0.4039930987
 H       -10.9961084705        4.9674491708       -0.8472236834
 H       -11.1045652179        7.8823932023       -0.0910579256
 H       -12.3242570584        7.4259239044       -1.2916507188
 H        -7.1777939224        8.7344220718       -3.6524464668
 H        -7.8027500192        7.6700476224       -2.5724173863
 H        -7.0992484841       10.5584577477       -1.6429019360
 H        -5.9718638430        9.1015134815       -1.7042574207
 H        -3.4893888413        8.5412861536        0.7042857790
 H        -3.7354206486        6.9978655592        1.5451440186
 H        -4.1912396007        8.6159116957        2.2107675547
 H        -5.3053444234       10.3645275393        1.9945008258
 H        -6.5435293582       11.1486956134        1.2159899443
 H        -5.2306697516       10.4937377510        0.2210958119
 H        -6.6776435733        8.6417728959        3.0557811464
 H        -8.0266789718        7.9167778103        2.2394903052
 H        -8.0656145273        9.5955485329        2.5408650858
 H        -9.5121431572        6.2671010740       -4.2863135407
 H        -9.3575725448        7.7913709979       -5.1038395137
 H       -10.8581266328        7.1313785753       -5.0414163916
 H       -11.7268316149        9.2984580276       -4.1914721458
 H       -11.8012763420        9.4380425613       -2.4783666112
 H       -12.5490853024        8.0881970802       -3.5105010732
 H       -14.1387894774        5.4876196111        1.2659961368
 H       -13.3683798203        6.9830518573        1.7924682942
 H       -14.2198351176        5.8635601779        2.9333184755
 H       -10.7750092546        4.7862569178        3.9165894211
 H       -12.4056285260        4.9984735460        4.5604767709
 H       -11.6048661578        6.4796835839        3.8844171153
 H        -7.8157636877        0.1269833089        1.7292955395
 H        -7.6290478489       -0.0545697962       -0.0061608620
 H        -9.2178318220        0.1737739550        0.5707311190
 H        -6.5409778766        1.9909177036        2.3935630582
 H        -6.4808933681        3.4013709699        1.3539830578
 H        -6.0104174221        1.8123802908        0.6412179140
 H       -11.3664069435        0.2500020687       -4.0771636526
 H       -11.9250649317        1.8677848611       -4.3319528344
 H       -13.0929428077        0.6349356842       -3.9329057165
 H       -12.8576228919        3.1164488476       -2.3930758171
 H       -12.7999613432        2.4787549573       -0.7432029442
 H       -13.9418256472        1.8048893502       -1.8856545604
 H        -8.7526224372       -5.0209206618       -1.1699931400
 H        -8.3653027217       -5.3616288995        0.5173357869
 H        -8.0597764878       -3.7755978380       -0.1510484790
 H       -11.2005972173       -6.0170030215        0.9169002316
 H       -11.1287954648       -5.6951581494       -0.8846894101
 H       -12.2226911464       -4.7781005524        0.1641534404
 Na       -8.3235801216        5.9507263941        0.3280283277
