117

 C       -11.4257034844       -3.3819885556        2.5074896194
 C       -10.1232640457       -3.3880513467        1.6662061975
 O        -9.0366784761       -2.9549312192        2.0414804058
 C       -10.2919845782       -3.9399178075        0.2356055563
 C       -10.6340158795       -2.7693433286       -0.6579411366
 O        -9.8047222509       -2.0316510106       -1.1179361121
 C       -12.2107327849       -2.5633738981       -1.0112423655
 C       -12.5235840553       -1.3296404931       -1.9310632862
 C       -12.0883352053        0.0203990737       -1.2030578420
 O       -11.8898443396       -0.0757927077        0.0260235083
 C       -11.9421487256        1.2805683266       -2.0329427000
 C       -10.4677362207        1.8862977806       -1.9523687424
 O       -10.3500192620        3.0711385349       -1.8242333001
 C        -9.2225801184        1.0064366521       -2.1047991826
 C        -7.8697776301        1.7486334798       -1.7809604428
 C        -7.8974510402        2.6348026467       -0.5036062462
 O        -7.7155941192        3.8203650764       -0.7680434005
 C        -8.0811161823        2.0285069766        0.9152975326
 C        -9.1592254317        2.8300980071        1.8279434434
 O        -8.8819009802        3.7582117979        2.5002355093
 C       -10.5420576173        2.1317030293        1.8363341834
 C       -11.6282382659        2.6378955546        2.8381368218
 C       -12.6013418976        3.6080559542        2.1909229297
 O       -13.4335700593        3.2208105495        1.4650677998
 C       -12.2743116740        5.2391534438        2.3139287830
 C       -11.1328002773        5.6157077172        1.2776059596
 O        -9.9949955241        5.7266866784        1.6901454277
 C       -11.4309805056        5.6485318411       -0.2070546444
 C       -11.2977409956        7.0510278879       -0.8633913478
 C       -10.3131928752        7.0280921436       -2.0695408085
 O        -9.2856342859        6.2831277141       -2.0272975637
 C       -10.3830442228        7.8742374550       -3.3107066393
 C        -9.3273003217        9.1102051520       -2.9130634708
 O        -9.6831676536       10.2011265886       -2.5598499559
 C        -7.7715165880        8.7530607144       -2.9672331742
 C        -7.0426619119        9.4386598821       -1.7517850457
 C        -7.4698809423        8.8278768756       -0.3700689713
 O        -8.5266600868        8.2528078598       -0.2545255826
 C        -6.5208874061        9.0018608064        0.9297573986
 C        -5.4775709066        7.8616763101        0.8794825688
 O        -5.8724752625        6.7890284959        0.4618078003
 C        -4.1014485659        8.0633871339        1.5618424249
 C        -5.9028047052       10.3916302290        0.8577271791
 C        -7.3729157253        8.8233549402        2.1890850398
 C        -9.9159421180        7.1709491583       -4.5372995245
 C       -11.7142350369        8.5573484140       -3.6388825603
 C       -13.6411383059        6.0416380089        2.0675668287
 C       -11.7254705101        5.7052169703        3.7716479547
 C        -8.3720639093        0.5091225898        0.8840931583
 C        -6.5785282184        2.2788874113        1.5691869132
 C       -12.1163556795        0.9624878748       -3.5518775601
 C       -12.9897863801        2.4002345180       -1.5902263322
 C        -8.9345178045       -4.4841898298       -0.3779844479
 C       -11.2594720998       -5.1935099905        0.2281814264
 H       -11.2845272923       -2.6726312160        3.3647484805
 H       -11.5840527626       -4.3978249958        3.0547824994
 H       -12.3624216952       -3.2237482342        1.9126922132
 H       -12.6949189313       -2.3202713575       -0.0723121717
 H       -12.5175269306       -3.5695288694       -1.3549721521
 H       -13.6712544565       -1.3528026382       -1.9692580929
 H       -12.1573851725       -1.5147646476       -2.9902833158
 H        -9.3070215014        0.6292834171       -3.1580507367
 H        -9.2490725153        0.1135099158       -1.5276376981
 H        -7.6142317462        2.4070052787       -2.6298523670
 H        -7.1092445394        0.9958345076       -1.6906660445
 H       -10.3388493846        1.0619641227        1.9302942305
 H       -10.9085709532        2.2375505510        0.8255929526
 H       -11.0922970164        3.0477967932        3.7363508837
 H       -12.2709911735        1.7848920968        3.1668036970
 H       -12.4336058250        5.2403079465       -0.4345463727
 H       -10.7563989773        4.8986449525       -0.6839505376
 H       -10.8670602938        7.7495845173       -0.1335256850
 H       -12.2818164708        7.4202822725       -1.0709202509
 H        -7.4826616838        9.2126687661       -3.9277964114
 H        -7.6021960619        7.7025039828       -3.2450618925
 H        -7.3421215488       10.5051112293       -1.6874401307
 H        -5.9408126706        9.4121110103       -1.7822528225
 H        -3.5506736312        8.9457608949        1.3549402980
 H        -3.4110257089        7.1709223036        1.3721802643
 H        -4.3329523510        8.1949847424        2.5977213013
 H        -5.4986682379       10.7079327273        1.8157871348
 H        -6.5793659357       11.2218126252        0.7417947272
 H        -5.1739892223       10.3833254344        0.0408198317
 H        -6.7040970916        8.8967737315        3.0908688338
 H        -7.8211286042        7.8128260920        2.2267223302
 H        -8.1975186222        9.5637467635        2.2245614944
 H        -9.2238993610        6.4016735040       -4.1537658402
 H        -9.3105650058        7.7598030572       -5.2469886725
 H       -10.6183013433        6.6909377725       -5.1928100168
 H       -11.7917557629        8.9932026991       -4.6571856585
 H       -11.9387302171        9.3126159873       -2.9110364913
 H       -12.4903725359        7.8837683412       -3.7511563788
 H       -14.0238395935        5.9668172173        1.0472378852
 H       -13.4737464457        7.0924632375        2.3866287367
 H       -14.4240870107        5.6205543721        2.7378369569
 H       -10.7634557724        5.2629749429        3.9193316384
 H       -12.2777813155        5.2577672603        4.5921742891
 H       -11.7670816725        6.7900038026        3.8248468367
 H        -8.4434068516        0.1708034056        1.9193285263
 H        -7.4969257043        0.0018665881        0.4602550416
 H        -9.3736617761        0.3105060194        0.3694568902
 H        -6.6481894400        2.0622031868        2.6017434391
 H        -6.4321858139        3.3265444642        1.7066783581
 H        -5.7785940728        1.7525302269        1.0643860404
 H       -11.5311461157        0.0538230557       -3.8898869039
 H       -11.8321570779        1.8155628872       -4.1214365093
 H       -13.1995631505        0.7385641021       -3.7603659092
 H       -12.6118098372        3.4026104688       -1.7831594572
 H       -13.1581127286        2.2970050448       -0.5191949324
 H       -13.8809506232        2.2758282655       -2.1705115771
 H        -9.1317154303       -4.8222084923       -1.4003345661
 H        -8.5899503877       -5.3746303452        0.2284036864
 H        -8.1235490394       -3.7352801723       -0.3700749007
 H       -10.7324102097       -6.0201123691        0.6353083108
 H       -11.4585938868       -5.4448432870       -0.8182959151
 H       -12.2037625753       -5.0439390551        0.7400565131
 Na       -8.1822510776        5.7824177445        0.0663061439
