117

 C       -13.2985067183        5.1983677532        1.0743178578
 C       -12.2221668973        4.1070006697        1.3218007307
 O       -12.0755807538        3.0833087675        0.7342728535
 C       -11.5303199627        4.1424450716        2.8191508472
 C       -11.3654400568        2.6139105053        3.2723306528
 O       -10.5286037139        1.8886747588        2.7798067168
 C       -12.2161793304        1.8198595342        4.4164743390
 C       -12.8515294044        0.4498172028        3.9663177248
 C       -14.1956041935        0.7315716382        3.3398515145
 O       -14.7127798791        1.8705738015        3.5208176597
 C       -14.8459447827       -0.3336589587        2.4334614753
 C       -13.8963975089       -0.4156152003        1.1543587676
 O       -13.0883136265        0.4192472556        0.8798107988
 C       -13.8090868400       -1.6827618317        0.1159445710
 C       -12.4813742528       -2.3690537477        0.1997781276
 C       -11.3964975240       -1.7211038780       -0.7913885040
 O       -11.4557038178       -0.5452930340       -1.0806886519
 C       -10.1602442784       -2.6222624962       -1.1484842585
 C        -9.2470362224       -2.5968558726        0.2084843257
 O        -9.8729163474       -2.7285429671        1.2531043612
 C        -7.7181099543       -2.7513127771        0.1426455390
 C        -6.9447710808       -1.5654186528        0.7070934393
 C        -7.5141321863       -0.2395380495        0.3632270017
 O        -8.6982298009       -0.2843682520       -0.0022132224
 C        -6.8627785610        1.2029549145        0.4708169232
 C        -7.7022671073        2.3934060645       -0.0848606456
 O        -8.9079052126        2.3975127248       -0.2682146978
 C        -6.6766975124        3.5453862620       -0.3060046243
 C        -7.2695004112        5.0490056291       -0.7140408235
 C        -6.0519250123        5.8260991103       -1.1853652421
 O        -4.9863520693        5.4540733125       -0.6527616360
 C        -6.1714714923        7.2151137014       -2.0426364748
 C        -7.5657366499        7.8827474018       -1.6958810905
 O        -8.4987574019        7.2143095535       -1.3436263750
 C        -7.9481304087        9.3834309237       -1.6951174962
 C        -8.3049719443       10.0108702854       -3.0249614897
 C        -9.3373007088       11.1022923377       -3.2104042684
 O       -10.3542474882       11.0273495525       -2.5356361085
 C        -9.1779949316       12.2987508707       -4.2517844448
 C        -8.2410085074       11.8409147211       -5.4929696490
 O        -8.3558885367       10.8175519590       -6.1839646142
 C        -7.0545034078       12.8501220312       -5.8838813295
 C       -10.5569219459       12.5758251583       -4.8346445306
 C        -8.6104786109       13.5616241621       -3.4477180686
 C        -5.0214106902        8.1616732338       -1.7333652504
 C        -6.2294183496        6.9309700678       -3.6287500665
 C        -6.6917861501        1.5284686908        2.0242869167
 C        -5.4645858915        0.9494617080       -0.3754913325
 C       -10.5074132069       -4.0689909140       -1.7064515270
 C        -9.4628913745       -1.8999927574       -2.4076580685
 C       -14.8331353615       -1.6323624374        3.2523075320
 C       -16.3115199077        0.1713512893        2.2069218505
 C       -10.1601115785        4.7670688840        2.6495450366
 C       -12.3350358864        5.0912943591        3.7981152913
 H       -14.1655358425        4.6667761137        0.7981726531
 H       -12.8852338021        5.8317619099        0.2284481846
 H       -13.5028022254        5.8627378021        1.8823516125
 H       -13.0082874402        2.4715250930        4.8623378854
 H       -11.4668644565        1.4835354885        5.1302548662
 H       -13.0371265936       -0.1115875195        4.8729117996
 H       -12.0398681565       -0.1584104242        3.3970001249
 H       -14.0474338102       -1.2866436384       -0.9339459751
 H       -14.5965214286       -2.4376054955        0.3233233789
 H       -12.6049472856       -3.4010008479       -0.1448705428
 H       -12.0501872635       -2.3759876814        1.2153493833
 H        -7.3434623960       -2.9405651332       -0.8310958482
 H        -7.3717326076       -3.5589957919        0.6519367362
 H        -5.9136056854       -1.4206809014        0.4477204707
 H        -6.8181004263       -1.6756714127        1.8587288223
 H        -6.0166759399        3.3521432978       -1.1433715898
 H        -6.1826475292        3.6284230477        0.5941311398
 H        -7.8873594564        5.2991000051        0.1624029191
 H        -7.8792733433        4.8678937702       -1.5915237365
 H        -7.1927565805       10.0008432509       -1.2836656101
 H        -8.7450950795        9.3857791669       -0.9672059530
 H        -8.9120385647        9.1540938716       -3.4931462560
 H        -7.4210805651       10.2023963856       -3.6619099050
 H        -6.6737731708       12.4245397566       -6.7754324966
 H        -6.3359555499       12.9642475672       -4.9834285820
 H        -7.5257218568       13.7461544319       -6.2011121361
 H       -10.6690982353       13.6280483017       -5.3503172762
 H       -11.2809730296       12.5433043672       -3.9389001529
 H       -11.0194214206       11.8039827198       -5.5799937388
 H        -7.6314848322       13.7977909439       -3.9323173758
 H        -8.4355061757       13.1396387203       -2.5220758248
 H        -9.5301603800       14.1451550441       -3.4501989897
 H        -4.7995136060        8.9008321740       -2.4549667433
 H        -4.1312030469        7.6152842284       -1.9340115822
 H        -5.0963102656        8.4711988529       -0.6477832364
 H        -5.2945971778        6.6034154082       -4.0232686929
 H        -6.6876849182        7.8377185356       -4.1346864631
 H        -6.9109170415        6.1447380557       -3.7976249424
 H        -7.1575342746        0.7758876043        2.7492847144
 H        -7.2961024129        2.3437716809        2.2041238417
 H        -5.6948655005        1.7465609263        2.4112407051
 H        -4.7046512100        1.7038392480       -0.3461709635
 H        -5.7336052334        0.7695935406       -1.4148950077
 H        -5.0700832013       -0.0017112072       -0.0186718695
 H       -11.5219649241       -4.0597093540       -2.2529531732
 H       -10.5752194162       -4.8598231937       -0.8914860523
 H        -9.9137907062       -4.4020275921       -2.5948983903
 H       -10.2266969749       -1.2435248956       -2.8504987577
 H        -9.1696104213       -2.7009526771       -3.0466992640
 H        -8.5941702054       -1.2811223824       -2.2070268552
 H       -13.8526344660       -2.0776885506        3.5399646576
 H       -15.4705513560       -2.4936579656        2.9392908814
 H       -15.3311922286       -1.2144587820        4.1367005213
 H       -16.5490882747        0.1464228588        3.2814579264
 H       -17.0403933803       -0.4484717814        1.6947644718
 H       -16.2187155576        1.1153462090        1.7161337870
 H        -9.5273957381        4.2968541598        1.8919914409
 H        -9.5834578625        4.7836695194        3.5797485548
 H       -10.1681910672        5.7309929358        2.2233382864
 H       -11.7514468775        4.9911211578        4.7501061519
 H       -13.3328595723        4.7996141051        3.8155747326
 H       -12.2531323198        6.1006936118        3.3544689612
 Na      -10.5607654237        1.0210235746        0.4558725577
