117

 C       -11.3191115998       -3.4088296480        2.5908516638
 C       -10.0763316418       -3.2861206462        1.6151434273
 O        -9.0643879398       -2.7502650172        2.0295416735
 C       -10.3238676361       -3.9410836426        0.1385609678
 C       -10.8102250107       -2.7386144239       -0.7792543676
 O        -9.9870903823       -1.9220426504       -1.0834230186
 C       -12.3493785180       -2.4911452195       -0.9788213081
 C       -12.5822970688       -1.2753774808       -1.8700507724
 C       -12.1167227795       -0.0239527101       -1.1953364928
 O       -11.9995275350       -0.0040814212       -0.0024950293
 C       -11.9332768860        1.2432699089       -2.0181912593
 C       -10.4541743636        1.9277307285       -1.9157804830
 O       -10.2957679323        3.1489481474       -1.8330897063
 C        -9.2640469106        0.9471637060       -2.1622129901
 C        -7.9587525990        1.5592363812       -1.6237495688
 C        -7.9203068055        2.5952917332       -0.4461002007
 O        -7.5974626894        3.7377141409       -0.6793216333
 C        -8.0459107552        2.0581888320        1.0264918783
 C        -9.1571488996        2.7045876326        1.8638137556
 O        -8.9045908042        3.6306200678        2.6137920887
 C       -10.5504270956        2.0223588530        1.8768819891
 C       -11.4893094898        2.7467795316        2.8908385948
 C       -12.4599431577        3.7495735354        2.1933744441
 O       -13.3393822857        3.3683434913        1.4325007724
 C       -12.2963152019        5.2867086040        2.3113772998
 C       -11.1917853315        5.5588678997        1.2544495623
 O       -10.0005666277        5.6845555018        1.6137487330
 C       -11.4726542182        5.6321682023       -0.2605463056
 C       -11.2660680555        7.0042397069       -0.9325102452
 C       -10.2318495718        6.9755944167       -2.1032885298
 O        -9.3060710250        6.1813117048       -2.0481555296
 C       -10.2729960743        7.9131033270       -3.3356880400
 C        -9.3124508669        9.0573569426       -2.9757589171
 O        -9.7764867735       10.1031129360       -2.5777558941
 C        -7.8276870571        8.8042013031       -3.0005849913
 C        -7.1231996273        9.4228143565       -1.8262608258
 C        -7.5116094917        8.8137053450       -0.4769551075
 O        -8.5086270521        8.1270404621       -0.3702596339
 C        -6.5476181164        9.0594096536        0.7637752199
 C        -5.4947847551        7.8248219580        0.9507103358
 O        -5.7542453923        6.6795702296        0.6199983361
 C        -4.1392017137        8.0341872369        1.5786111974
 C        -5.9044859501       10.4664520796        0.8057189088
 C        -7.3422329001        8.9350323542        2.1141278273
 C        -9.7845421533        7.2203452387       -4.6093875151
 C       -11.7777861728        8.4506111037       -3.6595744661
 C       -13.5542091452        6.0520598946        2.0249452418
 C       -11.8225073468        5.7362495733        3.7512421933
 C        -8.2784100625        0.5826414945        1.0067494910
 C        -6.6439708419        2.3066510556        1.6865068391
 C       -12.1317893834        1.0822049834       -3.5527989686
 C       -13.0107601736        2.1740549983       -1.4608600200
 C        -8.9065484326       -4.4961476319       -0.3444270163
 C       -11.2972269781       -5.1319064845        0.1496612027
 H       -11.2827580023       -2.5722925328        3.3292124479
 H       -11.1378328600       -4.2591760225        3.2641444329
 H       -12.2726823536       -3.6445637531        2.1585989167
 H       -12.7975381275       -2.3072765036        0.0017403916
 H       -12.6747153428       -3.4026490285       -1.3796520957
 H       -13.6093985659       -1.3380502090       -2.2715978737
 H       -11.8220429677       -1.3841208156       -2.7867902844
 H        -9.2524504049        0.8471764532       -3.2769673739
 H        -9.3513021745       -0.1091911118       -1.7902640337
 H        -7.5374203458        2.0919553368       -2.4489194572
 H        -7.3282948623        0.7397007539       -1.3291283298
 H       -10.3488037669        1.0091202914        2.1526814521
 H       -10.9796851618        1.9787290046        0.8963042152
 H       -10.7968248316        3.2870211272        3.6292670730
 H       -12.0902003031        1.9862800562        3.4761354626
 H       -12.4562641746        5.2864772637       -0.5400059092
 H       -10.8307298476        4.8970271858       -0.6928807617
 H       -10.9069520805        7.7047820999       -0.1597412934
 H       -12.2279619486        7.3798492760       -1.1979881857
 H        -7.4318634276        9.0259035868       -4.0378451721
 H        -7.7711360708        7.7364180101       -3.0337798423
 H        -7.2171813442       10.5046425130       -1.7233404830
 H        -6.0729982480        9.2745074471       -1.8535151731
 H        -3.6318910453        9.0197887305        1.4209755951
 H        -3.4540991276        7.2594003523        1.1770954952
 H        -4.2384224060        7.9737046219        2.6531256541
 H        -5.4489781133       10.5833795115        1.8138963364
 H        -6.4866855786       11.4078847849        0.8153936089
 H        -5.1146543635       10.5022633863       -0.0053528082
 H        -6.7342721582        9.2048606171        3.0116614590
 H        -7.7180579816        7.9088235952        2.2818336392
 H        -8.2324996123        9.6114602459        2.0288179742
 H        -8.8278577913        6.7414164663       -4.3670178786
 H        -9.5989002036        7.8443413504       -5.4740558690
 H       -10.4074366487        6.4095855357       -4.9761630728
 H       -11.9089941720        8.9051988958       -4.6049504377
 H       -12.2246498897        9.1107092601       -2.9224239828
 H       -12.4328551104        7.5273141649       -3.8317124073
 H       -13.7402638357        6.0074205278        0.9338757442
 H       -13.4264900702        7.0709083894        2.4014297876
 H       -14.4437400064        5.6420103907        2.5420145954
 H       -10.8455841635        5.3738028497        3.9321220060
 H       -12.3945438651        5.1751683628        4.4563445091
 H       -11.9261859711        6.7322482008        3.8758809954
 H        -8.4238154367        0.2165457092        2.0230017241
 H        -7.3571393745        0.0961861638        0.5952743205
 H        -9.2155374946        0.4111890781        0.4903282677
 H        -6.7131975201        2.0088792541        2.6999788432
 H        -6.3867899167        3.3584345389        1.8957813084
 H        -5.9087559689        1.7535615139        1.1624006428
 H       -11.2604683436        0.4838517612       -3.9916927200
 H       -12.2844345184        2.0429908724       -4.0658418347
 H       -12.9975219951        0.4307216355       -3.7341473974
 H       -12.7131081226        3.2113396810       -1.7664159522
 H       -13.0699901701        2.1343499275       -0.3932889864
 H       -13.9731221234        1.9560601570       -2.0340199523
 H        -8.9609296134       -4.8061458953       -1.4227201110
 H        -8.5625749561       -5.3450883713        0.2479531201
 H        -8.1659498324       -3.6856742970       -0.2122537285
 H       -10.8044687400       -6.0102659555        0.5522891978
 H       -11.6095417720       -5.3834098587       -0.8642919275
 H       -12.1597544594       -4.8476505658        0.6917479832
 Na       -8.0862225615        5.8291533716        0.0534663275
