117

 C       -10.9028485970       -3.8369414235        2.8550406419
 C       -10.6842287854       -3.3120814208        1.4693870294
 O       -10.3352427698       -2.1604007465        1.2649359868
 C       -10.7885408919       -4.2368803294        0.1821023683
 C       -11.3244807890       -3.2403664772       -0.9852584356
 O       -10.6248339182       -2.8486986857       -1.9266304045
 C       -12.6753794691       -2.5465000399       -0.6781430565
 C       -13.1771838621       -1.3864870915       -1.5592818821
 C       -12.5410186006       -0.0636261212       -1.2018591110
 O       -12.5605523955        0.3025082800       -0.0692829313
 C       -11.9539976994        0.9690761857       -2.1769777239
 C       -10.6270657794        1.5353505488       -1.5826556260
 O       -10.4983571988        2.7324241849       -1.4444009533
 C        -9.5684754102        0.5039627326       -1.1305322838
 C        -8.1653782953        1.2112254162       -1.0693668056
 C        -7.8822757581        2.4526184860       -0.1342439414
 O        -7.6228394569        3.5053739749       -0.6176748562
 C        -7.8826927053        2.3063904822        1.5042035613
 C        -9.1226026493        3.0881333229        2.0734058176
 O        -9.1597558538        4.3039053432        1.9128045740
 C       -10.2003992225        2.3547182350        2.8451786095
 C       -11.1796203393        3.3717551766        3.4727983184
 C       -11.8881913921        4.2056205772        2.3652939039
 O       -12.3214168564        3.5973167143        1.3944568583
 C       -12.0604867462        5.7843343271        2.3614150403
 C       -11.0909388321        6.3145422325        1.2358258203
 O       -10.0317306581        6.8670044143        1.5681382508
 C       -11.3996721381        5.9779352458       -0.2087766764
 C       -10.9515661475        6.9971305247       -1.2308914354
 C        -9.8687428888        6.5491987440       -2.1169104313
 O        -9.0553650258        5.6837828600       -1.9372170690
 C        -9.8377408621        7.3483266343       -3.4732891421
 C        -9.2342027954        8.7510431876       -3.1231016309
 O        -9.9998546262        9.5313018801       -2.6956747297
 C        -7.7933359219        9.2328043065       -3.3771386870
 C        -7.1129051036        9.8336984658       -2.1932718192
 C        -7.1868033361        8.8319747026       -0.8932885184
 O        -7.9258545437        7.8703261531       -0.9464327707
 C        -6.4465808595        9.1581185634        0.3902489227
 C        -5.6850654876        7.8325342392        0.8454465741
 O        -6.3205409333        6.8258420828        1.0728617106
 C        -4.2141214829        7.9249027697        1.1007245351
 C        -5.5526029563       10.3582862730        0.2519727843
 C        -7.4261672207        9.5451738446        1.4805058853
 C        -8.9560092873        6.6313189796       -4.4876710298
 C       -11.2026993129        7.6215055886       -4.0704257450
 C       -13.5725757616        6.2540015236        2.1559172682
 C       -11.4811858255        6.4305530575        3.6901437562
 C        -7.8289511131        0.8501148300        2.0329423357
 C        -6.6325734442        3.0874398150        2.0890628159
 C       -11.7193002031        0.2937778648       -3.5350735449
 C       -12.9215639950        2.1785990866       -2.2950698751
 C        -9.3810754852       -4.7412247967       -0.3279330359
 C       -11.7009802703       -5.5113586241        0.4169293528
 H       -10.3421472829       -3.2036474871        3.5374350367
 H       -10.4596322687       -4.8147637276        2.7851968901
 H       -11.9297831636       -3.8110108695        3.2127742607
 H       -12.5599083767       -2.1681572363        0.3380074464
 H       -13.4928103319       -3.2702298952       -0.6112986874
 H       -14.1241435301       -1.2293241484       -1.1811377813
 H       -13.3264305015       -1.6691986199       -2.5607048942
 H        -9.5591409621       -0.3603386669       -1.8167684327
 H        -9.8339488097        0.1930727621       -0.1245302480
 H        -8.0671241979        1.6481885366       -2.0850537423
 H        -7.3291628208        0.4870992189       -1.0940005209
 H        -9.7817482740        1.7895868236        3.6990431522
 H       -10.7860349725        1.7065226951        2.1867949348
 H       -10.6468811677        3.9752025103        4.2024320233
 H       -11.8768722286        2.7828977294        4.0322253089
 H       -12.4395031029        5.7359220180       -0.3077278569
 H       -10.8537716035        5.0935312895       -0.4009955283
 H       -10.5429180556        7.8337781478       -0.6131998127
 H       -11.7351035663        7.4293475184       -1.8269478075
 H        -7.9153974256       10.0230138126       -4.1299486771
 H        -7.2933148257        8.3704578083       -3.6550572854
 H        -7.5265461052       10.8350064359       -1.8918940934
 H        -6.0842892173       10.1267446303       -2.4540172846
 H        -3.6236874071        8.6172827621        0.4049775412
 H        -3.7704264668        6.9809938737        1.1667191700
 H        -4.0557047943        8.2573167683        2.1425456706
 H        -4.8376631906       10.7187865795        1.0378128719
 H        -6.1685673950       11.2787564166        0.1395539410
 H        -4.9227766901       10.3547834117       -0.6909515072
 H        -6.7789687463        9.5854136993        2.3797407341
 H        -8.2132806707        8.7735995555        1.5264273852
 H        -7.9535487199       10.5157539897        1.2891782613
 H        -7.9445178842        6.5958523944       -4.0308771969
 H        -8.8992435155        7.1370992208       -5.4524533479
 H        -9.2724286576        5.6120179133       -4.7170655629
 H       -11.0812603471        7.8559218144       -5.0912653787
 H       -11.6264790479        8.4491182475       -3.4881493588
 H       -11.8561407528        6.6597617660       -4.0759290530
 H       -13.8977803789        6.2793446283        1.0953433448
 H       -13.6627129494        7.2710242502        2.5044033139
 H       -14.1521003358        5.4533149867        2.6027387994
 H       -10.5749490056        5.9412305038        3.9272709304
 H       -12.1762175065        6.3717960340        4.4790330191
 H       -11.2847680467        7.4547125041        3.4758176012
 H        -7.3302583774        0.8609239063        3.0070880134
 H        -7.2423053416        0.0914882899        1.4497449128
 H        -8.7746788345        0.3804544277        2.0751313524
 H        -6.5410818015        2.8836788233        3.1340912565
 H        -6.5294075853        4.1510599998        1.8119515337
 H        -5.7128130688        2.6908904152        1.7355366848
 H       -11.1129801195       -0.6355155503       -3.4283171905
 H       -11.0872245975        0.9117230784       -4.2175525336
 H       -12.6109353003        0.1455440614       -4.1364339287
 H       -12.5286070946        2.9188510848       -3.0131467869
 H       -13.1865231575        2.5813118414       -1.3242706530
 H       -13.9100745749        1.7991349320       -2.6783358265
 H        -9.3034121887       -5.2589591218       -1.3204764937
 H        -8.8900116868       -5.3720730983        0.4201233234
 H        -8.7139850030       -3.8618721545       -0.4561220548
 H       -11.1817775116       -6.2106433172        1.0599368770
 H       -11.9785107204       -6.0126455592       -0.5171446349
 H       -12.5669527427       -5.2682682771        0.9819390654
 Na       -8.1918489847        5.7249987346        0.3293396492
