117

 C       -10.8494505832       -3.6291483718        2.8048444995
 C       -10.1900451751       -3.1092423167        1.5980783300
 O        -9.4956372171       -2.1230240993        1.7070336375
 C       -10.4070338164       -3.7852860562        0.1852267571
 C       -10.9890306966       -2.6995767839       -0.7760203680
 O       -10.2502365717       -2.0609873439       -1.5523997020
 C       -12.5141633132       -2.6391407199       -0.9597215841
 C       -12.8401985226       -1.3742118638       -1.7955918229
 C       -12.3495891838        0.0124155681       -1.2152531400
 O       -11.9379088226        0.1628174794       -0.0731983901
 C       -12.0423144042        1.2632174668       -2.1670206442
 C       -10.6050851843        1.7858997585       -1.6090425297
 O       -10.4362798629        2.9717038601       -1.4510492493
 C        -9.5500428605        0.7399501850       -1.4710741659
 C        -8.1024902055        1.3575535958       -1.2769131659
 C        -7.9871839871        2.3357861081       -0.0212027316
 O        -7.9197051565        3.5212319447       -0.2582744634
 C        -7.9093351492        1.7985696484        1.4045023665
 C        -9.0011504250        2.6106263086        2.2128247030
 O        -8.7086656572        3.6900330023        2.6417719684
 C       -10.4285799602        2.0822450629        2.1374065372
 C       -11.3987953915        2.9263830074        2.9823694200
 C       -12.1887697729        3.9725306717        2.1106933366
 O       -13.0501217121        3.5545931081        1.3834784698
 C       -11.9304312776        5.4992761890        2.2422493099
 C       -10.9324472890        5.8873418317        1.1665805029
 O        -9.9120562586        6.4143828570        1.4850205709
 C       -11.3007725397        5.5765674863       -0.2889669946
 C       -11.1416072012        6.8640147401       -1.1409397934
 C       -10.0730759050        6.6798354545       -2.2932534604
 O        -9.1456799095        5.9329897613       -2.1956187562
 C       -10.2454585047        7.6014607839       -3.5478532524
 C        -9.3522554044        8.8411554682       -3.0400454293
 O        -9.9147785294        9.7728959820       -2.5132100034
 C        -7.7285732828        8.9234933210       -3.1378408309
 C        -7.1397262662        9.6594106567       -1.9621114936
 C        -7.3398212418        8.8634857328       -0.6711806969
 O        -8.1575723103        7.9649923089       -0.6330611810
 C        -6.5297819141        9.1928487237        0.6828479229
 C        -5.7858145549        7.8092250729        0.9789627321
 O        -6.2674846380        6.6923424667        0.9180627772
 C        -4.3583309406        7.9820422688        1.2912875029
 C        -5.6407970961       10.4174080619        0.5201121766
 C        -7.4956873145        9.3276127440        1.8361808339
 C        -9.5562730727        6.9210699580       -4.6776782709
 C       -11.6124674325        8.1026345526       -3.9791085287
 C       -13.4044588153        6.2081028801        1.8320380052
 C       -11.5875918610        5.9175521161        3.6477068155
 C        -8.0898184951        0.2260057626        1.4259078160
 C        -6.4624261145        2.1657374240        1.9264259608
 C       -12.0927637025        1.1331977521       -3.7116425838
 C       -13.0551027735        2.3958450958       -1.8881431531
 C        -9.0938177930       -4.3332629688       -0.3007185944
 C       -11.4908085872       -4.9399620466        0.3077253754
 H       -10.4317463508       -3.0634865958        3.6404946194
 H       -10.9584818293       -4.6913948588        2.9966643302
 H       -11.9524310237       -3.4225068787        2.5653060170
 H       -12.9031592431       -2.5777677095        0.0579307566
 H       -12.8661784376       -3.5257451747       -1.4450748007
 H       -13.9912661958       -1.2928718004       -1.8605174053
 H       -12.4118803560       -1.5076035211       -2.7509355567
 H        -9.5418849670        0.0170438332       -2.3029562925
 H        -9.8881542696        0.0938920617       -0.5907588470
 H        -8.0132478761        1.9197046901       -2.1658873441
 H        -7.4249774840        0.5094086642       -1.2777550174
 H       -10.4749895407        1.0613408466        2.4202391308
 H       -10.7345318502        2.1929845084        1.1080191000
 H       -10.8535505367        3.3391792721        3.8711651642
 H       -12.1487019351        2.2373310599        3.5089258983
 H       -12.2977105664        5.2131437978       -0.4225171510
 H       -10.6682670015        4.8333360611       -0.7122839955
 H       -10.9136150072        7.7237682936       -0.5384308909
 H       -12.1456049717        7.0731999159       -1.5659092772
 H        -7.5411227666        9.5928977496       -3.9984191136
 H        -7.3635861520        7.8847130359       -3.3574078589
 H        -7.5958052609       10.5891882355       -1.7289532641
 H        -6.1637207503       10.0651462755       -2.0873871824
 H        -3.8131500604        8.0397029579        0.3521705346
 H        -3.9047840492        7.1462379312        1.8062439438
 H        -4.1577073726        8.8848856729        1.9439712494
 H        -4.9218558051       10.5524383244        1.3652570494
 H        -6.1617930437       11.3778283625        0.2585883714
 H        -4.8689991555       10.3249186780       -0.2665562297
 H        -7.0515846311        9.3890414573        2.8429877917
 H        -8.1760424342        8.4253688128        1.7219023126
 H        -8.0346813537       10.2924915748        1.7269243555
 H        -8.8758905626        6.1090831124       -4.4906746811
 H        -9.0446662787        7.5988607438       -5.3654686860
 H       -10.3600409957        6.4080527944       -5.2425151430
 H       -11.4460140824        8.6111580224       -4.9427616314
 H       -11.9627077108        8.8663290761       -3.2767353190
 H       -12.3666368054        7.3483780498       -3.9184418624
 H       -14.0605016280        5.4394423835        1.4085917451
 H       -13.2990568718        7.0767328584        1.1394286210
 H       -13.7765746817        6.7019509468        2.7332815911
 H       -10.8330910512        5.3691823438        4.0883381277
 H       -12.4908836429        5.9178889233        4.1368396881
 H       -11.2136891782        6.9426475935        3.6007244322
 H        -7.9229657360       -0.1171140771        2.4940943102
 H        -7.4469345613       -0.3014138123        0.7117843912
 H        -9.1472353414       -0.0500128260        1.2302479716
 H        -6.3223429832        1.8639536502        2.9936788724
 H        -6.2653209706        3.2046986228        1.8590314327
 H        -5.6670348034        1.6372519784        1.3849699359
 H       -11.6526150817        0.2582087340       -4.1520586443
 H       -11.6202555094        2.0560816326       -4.1940131692
 H       -13.1487838850        1.0685777416       -4.0795006175
 H       -12.5802245951        3.3143905850       -2.2392258608
 H       -13.1835438044        2.5668279028       -0.7701969156
 H       -13.9962520086        2.2696767349       -2.3953891303
 H        -9.3125379570       -4.8348297787       -1.2762977676
 H        -8.6611916337       -5.1059264832        0.3654440723
 H        -8.3101658785       -3.5624403551       -0.4573780261
 H       -11.0298776312       -5.7037908573        0.9393625575
 H       -11.6920763944       -5.3587589626       -0.6401532006
 H       -12.4284735243       -4.6064529110        0.7549308500
 Na       -8.2976782288        5.7393870553        0.1606163572
