117

 C       -10.6016305843       -4.5654417560        2.7151088429
 C       -10.8418128529       -3.8858630856        1.2801770555
 O       -10.5977842969       -2.7306979786        1.1327277382
 C       -11.5570846252       -4.7601288429        0.1730618026
 C       -12.0204203387       -3.6853376780       -0.8913099938
 O       -11.4202074404       -3.5695015038       -1.9043839786
 C       -13.2181637205       -2.7344649532       -0.5569431312
 C       -13.2642206096       -1.3941069595       -1.3692315321
 C       -12.2597154155       -0.3746781382       -0.8646590182
 O       -12.1185040709       -0.2080426273        0.3322900792
 C       -11.5670096823        0.5341159807       -1.9015263349
 C       -10.6454454614        1.5096352789       -1.1501375245
 O       -10.8982546763        2.6697506940       -1.2188553842
 C        -9.5202582645        0.8060603448       -0.2525598794
 C        -8.0456171338        1.3603556854       -0.5229355834
 C        -7.6849685802        2.7043720404        0.2658529394
 O        -7.2781104015        3.6702032536       -0.3605302344
 C        -7.8151982744        2.7647062691        1.8899421459
 C        -8.9502859659        3.7441964224        2.2793868945
 O        -8.8794192646        4.8984312790        1.8694944005
 C       -10.1670311034        3.3286609356        3.0888401913
 C       -10.9860335869        4.5193268775        3.6174241278
 C       -12.0082469345        4.9902181467        2.6347664357
 O       -12.8630802064        4.2226840263        2.1699492800
 C       -11.9389743496        6.6073110926        2.2764344911
 C       -11.2797855328        6.7844363450        0.8488724869
 O       -10.1866542868        7.2655263578        0.6479952866
 C       -11.8889115787        6.1681329189       -0.4634056079
 C       -11.5897059586        6.8180106962       -1.8307502550
 C       -10.1680862320        6.4389536488       -2.3298909496
 O        -9.5589721364        5.5522549938       -1.7604247605
 C        -9.5240333105        7.1447997177       -3.5756560105
 C        -9.0163694037        8.5773490783       -3.2395631681
 O        -9.7413065153        9.3768896365       -2.5333610792
 C        -7.6064660467        8.9801515830       -3.7103434056
 C        -6.9244211889        9.6338058550       -2.4334103098
 C        -6.9380596526        8.6425626051       -1.3069478769
 O        -7.3354242093        7.5348474256       -1.5558755030
 C        -6.4203320764        9.0338742679        0.1647961509
 C        -5.4668272235        7.8364653963        0.5631651355
 O        -5.9326491051        6.7349274140        0.7351349892
 C        -3.9506193586        7.9596751518        0.8071911314
 C        -5.6415455968       10.3213290674        0.1359222335
 C        -7.6125669220        9.1108294637        1.1334106374
 C        -8.4285624272        6.2088190903       -4.1734741866
 C       -10.5839475815        7.4616899055       -4.7527493539
 C       -13.4210230873        7.1433115365        2.1498363131
 C       -11.1554946307        7.5417122418        3.2720503379
 C        -7.9926829585        1.3608169768        2.5629613608
 C        -6.4333619804        3.3213260642        2.3623446258
 C       -10.7210304307       -0.3758941232       -2.8187936898
 C       -12.6187276803        1.3649271889       -2.7748801949
 C       -10.4585762422       -5.6160379734       -0.4089352627
 C       -12.8123461796       -5.5184189708        0.7152235721
 H        -9.8546012762       -5.2833478986        2.5576322759
 H       -11.4984640652       -4.9304245977        3.2339575978
 H       -10.2878931122       -3.7412765333        3.3272255982
 H       -13.4224490690       -2.5205314514        0.5424692157
 H       -14.0707971706       -3.3036446679       -0.9544263010
 H       -14.2518614007       -0.8811850629       -1.2621136762
 H       -13.0817449203       -1.6239758793       -2.4337753216
 H        -9.5126527222       -0.2766820988       -0.2086192908
 H        -9.8913615554        1.0317872745        0.7907170561
 H        -7.9153734195        1.6086127321       -1.5565032610
 H        -7.3529825310        0.5716540549       -0.1909914147
 H       -10.0018780856        2.6999569997        3.9548109602
 H       -10.7241061069        2.6366356422        2.4557381180
 H       -10.2584353478        5.3021501971        3.9100753625
 H       -11.4558245602        4.1994866269        4.5810645932
 H       -13.0255052726        6.1111543375       -0.3425885095
 H       -11.6002756852        5.0715547219       -0.4949609824
 H       -11.6376967838        7.9143958766       -1.7132113484
 H       -12.2762090122        6.5077092185       -2.6150834772
 H        -7.6225528722        9.6933514496       -4.5766307437
 H        -7.0027118886        8.1938461210       -4.2345095232
 H        -7.5942216474       10.4835449548       -2.1938852973
 H        -5.8774435721        9.8849209356       -2.5336432588
 H        -3.3437120467        8.6764181672        0.3980277691
 H        -3.4714797059        6.9616472128        0.5732077024
 H        -3.8833346111        8.1397472022        1.8834591782
 H        -5.2303692105       10.4901176216        1.1086592092
 H        -6.1850785553       11.1591545121       -0.3130339698
 H        -4.7348191139       10.0538862668       -0.3587226389
 H        -7.2836414581        9.4147126666        2.1118553998
 H        -8.0470502192        8.1006958994        1.0940314584
 H        -8.2514696919        9.8995957023        0.7378374539
 H        -7.6256749708        6.0180650830       -3.4819490840
 H        -8.0920102687        6.7059464460       -5.0639440076
 H        -8.9961094428        5.2859986389       -4.4000949461
 H        -9.9928842796        8.0202565204       -5.4905188110
 H       -11.3546017345        8.0515511299       -4.2612111629
 H       -11.1174355599        6.6447626822       -5.1776768959
 H       -14.1881197055        6.3593281968        2.1354665196
 H       -13.5519337244        7.7024351626        1.2011105998
 H       -13.6275532219        7.9243796921        2.9179682247
 H       -10.0512888963        7.4992287678        3.1569484408
 H       -11.5046245852        7.5256021384        4.3444163439
 H       -11.4707118850        8.5903058914        3.0825194725
 H        -7.4219387245        1.4254700657        3.4684299810
 H        -7.5642115970        0.5625464045        2.0357407904
 H        -9.0734531773        1.0980779501        2.6728592282
 H        -6.4409093379        3.5571879695        3.4810277728
 H        -6.1099901475        4.2175573965        1.8738579287
 H        -5.6349661221        2.5521258646        2.2466423484
 H        -9.8609828618       -0.7277096931       -2.3018609612
 H       -10.3843010366        0.1920610922       -3.7352908024
 H       -11.3244977861       -1.2042351281       -3.1676358488
 H       -12.0172806548        1.8043733778       -3.6081445637
 H       -13.1507591269        2.2379026767       -2.2265353979
 H       -13.4059869568        0.7714515840       -3.2853452956
 H       -10.7873443356       -6.2562586162       -1.2449604138
 H       -10.0294306867       -6.3089461400        0.2925595787
 H        -9.6109901329       -5.0778623447       -0.8480684512
 H       -12.5586240221       -6.4847328858        1.1609674608
 H       -13.4324441659       -5.7302090638       -0.1235364581
 H       -13.3632535275       -5.0458852165        1.5115264246
 Na       -7.9883696347        5.8203369071        0.0097202768
