117

 C       -10.6810390475       -4.4771815861        2.6755690216
 C       -10.8870329656       -3.7395574898        1.3800781539
 O       -10.6622504011       -2.5758730098        1.1272099014
 C       -11.4427858755       -4.6526552230        0.1378752799
 C       -12.0239494091       -3.6218986463       -0.8860717002
 O       -11.3907227572       -3.3345578705       -1.8738630877
 C       -13.2942798152       -2.8055600705       -0.5720241258
 C       -13.3156169933       -1.4948494002       -1.3015154145
 C       -12.2588031796       -0.4207789042       -0.8539408292
 O       -11.9272698213       -0.1435921616        0.2898059477
 C       -11.5571376698        0.4866823584       -2.0022102901
 C       -10.6935264606        1.5150442995       -1.1832594118
 O       -10.9459382605        2.7358651462       -1.1438219926
 C        -9.5587600470        0.8813405712       -0.4081755568
 C        -8.1296688274        1.4052836218       -0.4651869332
 C        -7.7280426930        2.6939149385        0.2258720780
 O        -7.2481393012        3.5757115771       -0.4369461183
 C        -7.7415598414        2.7422513711        1.8131941731
 C        -8.9898452174        3.6926999247        2.2024898146
 O        -9.0249158312        4.8962033468        1.8572296313
 C       -10.1275766722        3.2218854884        3.0383401384
 C       -10.9063673745        4.4804027856        3.6693600250
 C       -11.9880546722        4.9918586517        2.6723185482
 O       -12.8048829060        4.2351926195        2.2901504313
 C       -11.9958611595        6.5356731102        2.2133250678
 C       -11.2531227418        6.7222327143        0.7934039913
 O       -10.1794463058        7.2845631333        0.7561962414
 C       -12.0278409725        6.2503274654       -0.4945366287
 C       -11.5049161472        6.9125604519       -1.7309119500
 C       -10.1108086196        6.4374570441       -2.2407037812
 O        -9.4490701741        5.5870335005       -1.7108476268
 C        -9.5075418241        7.1474592221       -3.6189853063
 C        -8.9806768591        8.5639974569       -3.1691298426
 O        -9.7435203399        9.3277396769       -2.6268878976
 C        -7.6306351533        9.1232114766       -3.5903339315
 C        -6.8380464953        9.7624246672       -2.4348342545
 C        -6.9360188093        8.6526156994       -1.3115629952
 O        -7.4107334581        7.5463057378       -1.5273124152
 C        -6.3744820898        8.9943272923        0.1656508056
 C        -5.5119223265        7.7640966804        0.6373355948
 O        -6.0192726478        6.6475352630        0.6593405897
 C        -4.0368739309        7.9709080229        0.8220887140
 C        -5.6467385959       10.3726275958        0.1981055714
 C        -7.6482429024        9.1059643731        1.1126603183
 C        -8.4637632088        6.0993041362       -4.1752039365
 C       -10.5968907186        7.4454415937       -4.5863801821
 C       -13.4708348690        7.0885818012        2.1508334619
 C       -11.3303527813        7.2461596925        3.3766401126
 C        -7.8681989822        1.3086140668        2.4893969601
 C        -6.4579905808        3.3693393942        2.3740347152
 C       -10.7280097380       -0.3781128775       -2.9456546462
 C       -12.6379763160        1.2100238070       -2.7861744880
 C       -10.3481676372       -5.5604239625       -0.4927392056
 C       -12.6285698753       -5.4963843369        0.6937843473
 H        -9.7496585765       -4.9325960222        2.5674965243
 H       -11.4600099149       -5.1747346968        2.7929599136
 H       -10.7510726055       -3.7413863785        3.4813230783
 H       -13.3557141071       -2.5618466087        0.4928650448
 H       -14.2026236197       -3.3886436832       -0.8259582316
 H       -14.4033081724       -0.9480152090       -1.3230105956
 H       -12.9992183018       -1.7010931772       -2.3476387714
 H        -9.4139910971       -0.1567310495       -0.7720857125
 H        -9.9038641716        0.6660160242        0.5813513712
 H        -7.8013756900        1.4808211474       -1.5536919473
 H        -7.5481497101        0.6300344463        0.0840712358
 H        -9.9484767471        2.4810365847        3.8622181216
 H       -10.7394501763        2.5877806993        2.3573435470
 H       -10.1369933064        5.1693486711        3.9372348545
 H       -11.3392793341        4.1668997763        4.5775542152
 H       -13.0877107331        6.4325530213       -0.3389925927
 H       -11.9878166881        5.1555127207       -0.6179958090
 H       -11.3864144448        8.0074375760       -1.5700891256
 H       -12.1510496573        6.7702477502       -2.5973502341
 H        -7.8440225468        9.7458088281       -4.5113812814
 H        -6.9609968537        8.4426516492       -4.0726353721
 H        -7.3459650484       10.7128163234       -2.0966317743
 H        -5.7374987938        9.8422811615       -2.6355474745
 H        -3.5989143538        8.8500522235        0.2989854477
 H        -3.4695025842        7.1092040122        0.5688790735
 H        -3.8491808356        8.2971364019        1.8503491368
 H        -5.2762369282       10.4873171200        1.2292296003
 H        -6.3277164312       11.1482714202       -0.1907639495
 H        -4.6585818641       10.3670581409       -0.2959835220
 H        -7.3151653553        9.5091667112        2.0939497075
 H        -8.0178402725        8.0604477994        1.1946245608
 H        -8.3227990241        9.8575327238        0.6649899168
 H        -7.5479081051        6.3488532903       -3.6190498291
 H        -8.3118232341        6.4120423192       -5.1978850718
 H        -8.7436106981        5.0631795999       -3.9746439977
 H       -10.2065225699        7.8589607925       -5.4594093248
 H       -11.3598460972        8.0279766306       -4.0606330034
 H       -11.1474076675        6.4556292066       -4.7443773337
 H       -14.1769009938        6.2374252604        2.1482851205
 H       -13.7361335427        7.7110181313        1.2773751335
 H       -13.6396842064        7.8239848972        2.9472664734
 H       -10.3031727668        7.0347220624        3.2610109775
 H       -11.6980400810        7.0161958188        4.3141361109
 H       -11.4517068579        8.3482415331        3.4001281955
 H        -7.3935903253        1.2544273647        3.4705533247
 H        -7.2891342187        0.5758211271        1.8803968470
 H        -8.8570193300        0.9551491274        2.4577543506
 H        -6.6030499816        3.3561966746        3.4669132536
 H        -6.2658709871        4.4215593454        2.1850239288
 H        -5.5587313464        2.7971015223        2.1661603561
 H       -10.1017652594       -1.1002511066       -2.3962524046
 H       -10.0537651016        0.2743372647       -3.5808359417
 H       -11.3750274076       -0.9613359761       -3.6082668147
 H       -12.1434699433        1.9719299126       -3.4039855184
 H       -13.3489744262        1.7640560999       -2.1225468054
 H       -13.2027442870        0.5903631706       -3.5131369101
 H       -10.7494061972       -6.0731056822       -1.4057764874
 H       -10.0112812744       -6.3859625281        0.1266548494
 H        -9.4157214396       -5.0974450520       -0.8797666747
 H       -12.3588763967       -6.4481233278        1.1502078745
 H       -13.3308537536       -5.7214897675       -0.1284571089
 H       -13.1877135731       -5.0073765403        1.4648016555
 Na       -7.9205508566        5.7604247698       -0.0586896813
