117

 C       -10.5970857411       -4.2850780920        2.7613125819
 C       -10.8106684980       -3.6249827444        1.3701317508
 O       -10.5732931276       -2.4578180825        1.2841959899
 C       -11.3337677326       -4.3198601904        0.1479465665
 C       -11.8889493298       -3.3349955643       -0.8624109172
 O       -11.2758305575       -3.1198807198       -1.8773677389
 C       -13.2804431341       -2.7018756650       -0.5764227323
 C       -13.5051450285       -1.4311533347       -1.4316990195
 C       -12.3796696250       -0.4470459509       -0.9887121093
 O       -12.0184387182       -0.3661348884        0.1915854127
 C       -11.6443675809        0.4790022969       -2.0488287358
 C       -10.7221639818        1.4061389795       -1.2363465527
 O       -10.8466157817        2.6203474209       -1.3364569065
 C        -9.5522155463        0.7762060820       -0.4414069602
 C        -8.1702334112        1.3712753850       -0.7327681650
 C        -7.7108825493        2.5832427031        0.0625943738
 O        -7.3034419456        3.5234108012       -0.5958447307
 C        -7.8157379305        2.7032851752        1.6669186112
 C        -9.1066456084        3.4701662005        2.0258833281
 O        -9.1969331096        4.6345121132        1.5981866454
 C       -10.1654034371        2.9686819802        3.0357222470
 C       -10.9768602189        4.1656607395        3.6583665997
 C       -11.9597675137        4.7821102829        2.6244028285
 O       -12.7833195427        4.0664238691        2.1527548448
 C       -12.0636779779        6.3137211529        2.2848175936
 C       -11.1780543945        6.5256544977        1.0366338031
 O       -10.0715383408        7.0380979163        1.1035660837
 C       -11.7593572046        6.2584813204       -0.3478687360
 C       -11.2895951365        7.2150884824       -1.4212899865
 C       -10.1358748213        6.5713441282       -2.1456710267
 O        -9.6181989679        5.5531591656       -1.7575868217
 C        -9.5977052712        7.1657247383       -3.5436706414
 C        -9.0941615659        8.6294767146       -3.2322316501
 O        -9.8146561747        9.4610087556       -2.5986423236
 C        -7.6492445570        9.0477343162       -3.6190677651
 C        -6.9717532989        9.6917908363       -2.3532244357
 C        -6.9189072082        8.6854906717       -1.2231244315
 O        -7.4854895686        7.6181532184       -1.4324575321
 C        -6.3842004005        9.0455614637        0.2063492228
 C        -5.4170616293        7.8520963146        0.6739528435
 O        -5.8292960717        6.7132253007        0.8414246682
 C        -3.9697024858        8.0760953443        0.9940605253
 C        -5.6110767757       10.3805705475        0.3113444681
 C        -7.5969759710        9.0241065271        1.2139850126
 C        -8.4417232321        6.3445890989       -4.0649878771
 C       -10.7198376743        7.1370953644       -4.5155455317
 C       -13.5921283212        6.6772520634        2.2372086057
 C       -11.4883175089        7.2734755206        3.3242414600
 C        -7.6468041408        1.3332813096        2.3959599169
 C        -6.5582199066        3.4949048464        2.1024441224
 C       -10.7786254685       -0.3137894360       -3.0527057793
 C       -12.7385485911        1.3304215681       -2.7373269668
 C       -10.0756923176       -5.0238471639       -0.4450923125
 C       -12.4439053348       -5.4302923174        0.3917948249
 H        -9.5902625606       -3.9642441062        3.0800343880
 H       -10.6340589819       -5.3879077575        2.6228406723
 H       -11.3467906673       -3.8061177548        3.4947310767
 H       -13.5008955500       -2.5035943468        0.5067743161
 H       -14.0561677747       -3.4054283893       -0.8881793529
 H       -14.5239358940       -1.0042430237       -1.3610925452
 H       -13.3674920401       -1.6834895851       -2.4104569603
 H        -9.5227331957       -0.2719041070       -0.7658125668
 H        -9.7064404863        0.7523930504        0.6751102707
 H        -8.1172035095        1.6509785741       -1.7443959475
 H        -7.3718633414        0.6787143182       -0.5025904868
 H        -9.7096711255        2.3662143460        3.7938275610
 H       -10.9208629390        2.3081964571        2.6701979813
 H       -10.2177290455        4.9501391553        3.9488830650
 H       -11.6120974139        3.8349107061        4.5432229328
 H       -12.8652576736        6.4879392300       -0.3115167674
 H       -11.6989930715        5.1875013197       -0.6848667863
 H       -11.0002577136        8.2055948859       -1.0405900996
 H       -12.0697239704        7.3606432766       -2.1468632239
 H        -7.7233556326        9.8945162174       -4.3624681832
 H        -7.0879782409        8.2902950166       -4.2060673284
 H        -7.6268788102       10.4852077801       -1.9995054091
 H        -6.0105577119       10.0917638875       -2.5594683753
 H        -3.3513924567        8.3209552123        0.1641196822
 H        -3.5730512708        7.1780609792        1.4841129973
 H        -3.8593990622        8.9940704622        1.5717595261
 H        -5.2348751948       10.4824877368        1.3219695675
 H        -6.2801237846       11.1840543515        0.0332894943
 H        -4.7866575358       10.4952139175       -0.3610807686
 H        -7.2842699657        9.2478155144        2.1933067730
 H        -7.9664114746        8.0047883874        1.1939853559
 H        -8.2545528561        9.7916021850        0.8698526938
 H        -7.7626252866        6.0691777145       -3.2774160630
 H        -8.0059814459        6.8021169078       -4.9238351454
 H        -8.9480731365        5.4024811293       -4.2648086551
 H       -10.3238898125        7.3429363686       -5.4897215691
 H       -11.3561130279        7.9852039093       -4.2285986556
 H       -11.2709029221        6.1865205571       -4.5015372927
 H       -14.0226078695        6.3715341847        1.3107309583
 H       -13.7648968601        7.7010689596        2.4468727923
 H       -14.1129334781        6.2936124593        3.0831487581
 H       -10.3763614396        7.2291974064        3.4047730930
 H       -11.9234208522        7.0590381539        4.3339519190
 H       -11.7228690425        8.3728790632        3.0088164752
 H        -8.0616826085        1.3269246208        3.4163861706
 H        -6.6068643796        1.0135423540        2.4480506550
 H        -8.2164054583        0.5424887422        1.9103929886
 H        -6.5214794587        3.6692349631        3.2042958915
 H        -6.4019107549        4.5079290987        1.8273093071
 H        -5.7762339003        2.8473267509        1.6984124188
 H       -10.8665060532       -1.3284473903       -2.8711433556
 H        -9.7135094744        0.0029305936       -3.0379575541
 H       -11.1667027836       -0.2517322525       -4.0335934137
 H       -12.3987647405        2.1695987298       -3.2867144277
 H       -13.3275702585        1.8072453105       -1.9193213314
 H       -13.3432865116        0.7372149371       -3.3772558681
 H       -10.2663538503       -5.7018128253       -1.2674774739
 H        -9.5721885919       -5.6062704569        0.2611954463
 H        -9.3343203102       -4.3346714863       -0.8071687559
 H       -12.1708472206       -6.1372013528        1.2097430049
 H       -12.6108308978       -6.0270507987       -0.5024691890
 H       -13.4226992492       -4.9982516317        0.5899615696
 Na       -7.9926790861        5.8350303787        0.0175038291
