117

 C       -10.4791979869       -4.9761105824        2.5881880570
 C       -10.7911841750       -4.3374679472        1.3042503025
 O       -10.2622781410       -3.2423903632        1.1004717337
 C       -11.8795867404       -4.9762915386        0.2966969213
 C       -12.2226973200       -3.8833030563       -0.7862541334
 O       -11.7162422650       -4.0001285454       -1.8999282270
 C       -13.1786509411       -2.7471323827       -0.4424025728
 C       -13.1338744719       -1.5370603858       -1.4040287429
 C       -12.2985034380       -0.4155638431       -0.8838667185
 O       -12.5084060594       -0.0185687835        0.2469544721
 C       -11.4713500874        0.4892208389       -1.8804937396
 C       -10.5552754975        1.4519740465       -1.0286070797
 O       -10.5051692070        2.6625409184       -1.2623480187
 C        -9.6661400832        0.8227414625        0.0386553489
 C        -8.1984678317        1.2318014275        0.0772749220
 C        -8.0747512924        2.6297442465        0.7032593448
 O        -8.0424961271        3.5540611871       -0.0890787655
 C        -7.8961721487        2.9195663117        2.2241962721
 C        -8.9098373923        4.0680328321        2.5879200684
 O        -8.7229054370        5.2170215688        2.2673147581
 C       -10.1819147766        3.6485577528        3.3703951635
 C       -11.1058231690        4.8598810147        3.6456986787
 C       -11.8660325014        5.3540656292        2.3527378783
 O       -12.3993191607        4.4965913580        1.7198507339
 C       -11.7448708064        6.9563417431        1.8927819889
 C       -11.1270177662        6.8888604196        0.5013500664
 O        -9.9893934591        7.3070026864        0.3322711032
 C       -11.8628112385        6.0464949093       -0.5995833302
 C       -11.5015050839        6.5685742237       -1.9949467623
 C       -10.1335958663        6.1874820264       -2.5308019515
 O        -9.3371428942        5.5250108323       -1.9211015688
 C        -9.7696548590        7.0509725775       -3.8713482391
 C        -9.1827252720        8.4706060269       -3.2196252417
 O        -9.8971089091        9.0827604321       -2.5246038886
 C        -7.7743559920        8.9617646509       -3.5980644252
 C        -7.0491378032        9.6401459348       -2.4149540473
 C        -6.7413132831        8.6083835299       -1.3481847616
 O        -7.1395087400        7.4615633799       -1.4524174166
 C        -6.1261239326        9.1019736340        0.0150182081
 C        -5.2949758285        7.8463858120        0.5945864791
 O        -5.8548312146        6.7987128644        0.9214385503
 C        -3.8167707522        8.0405555418        0.8031742423
 C        -5.3146377748       10.4241868520       -0.1504881641
 C        -7.2798922617        9.3827026763        1.0427684402
 C        -8.6491881233        6.2861476780       -4.7004599143
 C       -10.9954616775        7.3752849924       -4.6340692072
 C       -13.2473513837        7.4778381009        1.7616836922
 C       -10.8171429827        7.7845581290        2.8127778804
 C        -8.1265708317        1.6784123794        3.0856962062
 C        -6.5093791738        3.5917057907        2.4084319052
 C       -10.6968496092       -0.3553344325       -2.9000560656
 C       -12.5059117775        1.2845898688       -2.6668493590
 C       -11.1430756038       -6.1100193247       -0.4350900347
 C       -13.1365848954       -5.4964075897        0.9798950705
 H       -10.6788079875       -6.0370630180        2.5502681180
 H       -11.0815960281       -4.4014048774        3.2424655247
 H        -9.5127944992       -4.7318971517        2.9257348940
 H       -12.8663450027       -2.3432803610        0.5594655337
 H       -14.2515557759       -3.0519516979       -0.3728360547
 H       -14.0805234677       -1.1045570065       -1.3503404055
 H       -12.8719273274       -1.8251345672       -2.4403062348
 H        -9.7734629843       -0.2643634217       -0.1613361961
 H       -10.0612254930        0.9529782411        1.0669354939
 H        -7.7480671037        1.3809632114       -0.9019784717
 H        -7.5157771517        0.6078958993        0.6232600513
 H        -9.9516962931        3.1213597258        4.2875707594
 H       -10.7677447753        2.9185099291        2.7936063987
 H       -10.5224460532        5.6340642183        4.1887632110
 H       -11.9112535426        4.6010627242        4.3862975692
 H       -12.9892107647        6.0080270278       -0.5992295633
 H       -11.5200822669        4.9630487576       -0.5076072138
 H       -11.5957804607        7.6390194764       -2.1301347677
 H       -12.2360216360        6.0286419513       -2.6239769156
 H        -8.0177011946        9.7720260863       -4.3381088201
 H        -7.0691183428        8.3026112938       -4.1997427020
 H        -7.8401544895       10.2472828629       -1.9644535333
 H        -6.1666791489       10.2150913211       -2.7111170320
 H        -3.2960071724        7.7955640869       -0.1619020144
 H        -3.4105814592        7.3207106140        1.4231868069
 H        -3.5038901031        8.9679784178        1.2238677914
 H        -5.1834035189       10.7741087447        0.8608027456
 H        -5.8893110346       11.2086501647       -0.6155185581
 H        -4.4213704305       10.1703021202       -0.7111124556
 H        -6.7962751237        9.9204170042        1.8751301041
 H        -7.7679571421        8.4428574947        1.2196384162
 H        -8.0098500088        9.9949085048        0.5152912457
 H        -7.7750472687        6.2626117546       -4.0578852908
 H        -8.4474188927        6.7266660988       -5.6716223158
 H        -9.1001842627        5.3465676132       -4.9436326583
 H       -10.5960222533        7.8187230840       -5.5886737926
 H       -11.5706710246        8.1453282929       -4.1215870088
 H       -11.5604807315        6.4978714319       -4.9216953117
 H       -13.7044459622        7.0357057009        0.8836907189
 H       -13.1907423795        8.5308345718        1.5352395372
 H       -13.9102963216        7.1283658473        2.5404357186
 H        -9.7603959707        7.4206786036        2.7104315803
 H       -11.0673940562        7.6842617634        3.8817346553
 H       -10.7556338370        8.8215927832        2.4878436913
 H        -8.0107387661        2.0179695756        4.1113995777
 H        -7.3666193650        0.9367786707        2.8268251881
 H        -9.1071718925        1.2768038797        2.9095366386
 H        -6.1333814195        3.5354307536        3.3895619885
 H        -6.5307217751        4.6112774190        1.9793728008
 H        -5.7202982210        3.1152747725        1.8379785770
 H       -10.2459284737       -1.2107590938       -2.3346118585
 H        -9.9612219086        0.1901421179       -3.4058135009
 H       -11.4062581732       -0.6160699286       -3.6882128993
 H       -12.0424368577        2.2334725007       -3.0780273369
 H       -13.3340036399        1.5306718940       -2.0271659967
 H       -13.0114577263        0.7012742698       -3.4992918995
 H       -11.6891714534       -6.4967394201       -1.2881985357
 H       -10.8401345885       -7.0363855848        0.1373794518
 H       -10.2086625507       -5.7271656211       -0.8583084064
 H       -13.0209983787       -6.4255338332        1.5244525293
 H       -13.9726549067       -5.6360314103        0.3016349649
 H       -13.3959678122       -4.7281624991        1.7279859877
 Na       -7.8172270372        5.8457966063        0.1481717120
