117

 C       -10.5295149162       -4.7968525183        2.6602751268
 C       -10.8360438646       -4.0109904642        1.3511065766
 O       -10.3621593365       -2.8917296156        1.1531390821
 C       -11.6866205105       -4.8535086113        0.2449053874
 C       -12.1132172600       -3.7897829393       -0.9050228462
 O       -11.5489327154       -3.8143816136       -1.9791780858
 C       -13.1852678696       -2.7600805609       -0.5286393410
 C       -13.2604277922       -1.4908125352       -1.4452033589
 C       -12.3500657687       -0.4144991684       -0.8784450547
 O       -12.4186394964       -0.1682281807        0.3113932864
 C       -11.5295927274        0.5213993871       -1.8209035722
 C       -10.5603987399        1.5143807038       -1.0226281049
 O       -10.5435202287        2.7516677576       -1.2428692276
 C        -9.5805701211        0.8324759123       -0.0370314370
 C        -8.1395811753        1.3265155743       -0.3768779109
 C        -7.8270200606        2.7231270881        0.2807698861
 O        -7.4416934463        3.7449366260       -0.2326282129
 C        -7.8790006334        2.7479577649        1.9568806279
 C        -8.8973496856        3.8170136763        2.3776816815
 O        -8.7564294625        5.0091350047        2.0721467378
 C       -10.1297241801        3.4690769246        3.2023714116
 C       -11.0028585088        4.6828476129        3.6025722507
 C       -11.8896327962        5.2596673966        2.4736541822
 O       -12.6980884187        4.5852955404        1.9449729178
 C       -11.9269263226        6.8087697162        2.1366404124
 C       -11.1835111416        6.7047834839        0.6340702394
 O       -10.0544672858        7.1707530749        0.5105226730
 C       -11.8839493857        5.9560172668       -0.4986761272
 C       -11.6448819096        6.7336536301       -1.7995154927
 C       -10.3174522085        6.3612429292       -2.4647049452
 O        -9.5751441073        5.5837993662       -1.9197122895
 C        -9.6711256229        7.1125406232       -3.7444532840
 C        -9.1107624698        8.5742871797       -3.1906880859
 O        -9.7664514947        9.2427322262       -2.5060135401
 C        -7.6548651625        9.0449451565       -3.6030714758
 C        -6.8787913587        9.6353077712       -2.4124899660
 C        -6.8229184949        8.5909776007       -1.2557077080
 O        -7.2802367358        7.4829796887       -1.5114357249
 C        -6.1935974742        8.9887247488        0.0988805284
 C        -5.3369751707        7.8139194717        0.6114624037
 O        -5.8936744528        6.7650311985        0.9136239211
 C        -3.8777824354        8.0786317396        0.8031840652
 C        -5.5132842298       10.3894897270        0.0066394959
 C        -7.4350664707        9.1496918125        1.0715472082
 C        -8.5615168274        6.1337458243       -4.3126247062
 C       -10.7144846251        7.3933569855       -4.7745257497
 C       -13.3625230507        7.2334845275        2.0029437653
 C       -11.0323276358        7.6947990939        2.9967988706
 C        -8.0839946498        1.3506177890        2.6921733090
 C        -6.5041399431        3.2998359622        2.3945547349
 C       -10.6759771477       -0.3710732951       -2.7207287791
 C       -12.4860415205        1.3740760800       -2.6297003398
 C       -10.7316409330       -5.9061287587       -0.3399097856
 C       -12.9867034743       -5.4990423853        0.7306015187
 H       -10.6424181666       -5.8690117617        2.3488760867
 H       -11.3440297645       -4.4115470681        3.3072541117
 H        -9.6265304740       -4.5027465581        3.2718771076
 H       -12.9889296400       -2.4322150644        0.4586148544
 H       -14.1934226105       -3.1986917262       -0.5753524850
 H       -14.2777889556       -1.0706987006       -1.2990138054
 H       -13.0793577400       -1.7189228817       -2.4462926821
 H        -9.5661866684       -0.2822550110       -0.1086748740
 H        -9.9440218439        0.9633394350        0.9536461480
 H        -8.1051996263        1.5432530649       -1.4725322145
 H        -7.4048308078        0.5874599570       -0.1095146042
 H        -9.8796994326        2.8373924486        4.0588787986
 H       -10.7828977211        2.8072628937        2.6277706512
 H       -10.3900874669        5.4612131530        4.0890022103
 H       -11.7323998333        4.4110648204        4.3800959144
 H       -12.9008318827        5.6776515901       -0.3081093884
 H       -11.3435431218        5.0127176127       -0.5604080153
 H       -11.6395803369        7.8146185567       -1.6584650823
 H       -12.3916525545        6.4886049277       -2.5743375123
 H        -7.5897042553        9.8046328973       -4.3600186708
 H        -7.0588212771        8.3397000131       -4.0973568035
 H        -7.5600881754       10.3782241179       -2.0521207397
 H        -5.9298431761       10.0276110986       -2.7803187043
 H        -3.5148781713        8.7180582210       -0.0887283142
 H        -3.2304846885        7.2538719405        0.7353785478
 H        -3.6806026378        8.6097311490        1.7524214659
 H        -4.9805262866       10.6809783122        0.9166699232
 H        -6.3737946834       11.0035344297       -0.0569422159
 H        -4.8745537613       10.4185045092       -0.8815734996
 H        -7.0182565808        9.4497745097        2.0224859579
 H        -7.9440921378        8.2102828433        1.0112953362
 H        -8.0376752192        9.9354815423        0.6606075974
 H        -8.0033844951        6.0021095851       -3.3774356816
 H        -7.9159172726        6.5412043418       -5.0953874819
 H        -9.0704914249        5.2430503278       -4.6342128104
 H       -10.2450519707        7.8271294610       -5.6091769147
 H       -11.5316035200        7.9529619025       -4.3500438791
 H       -11.1430127222        6.4045514706       -5.0795579918
 H       -13.9346789511        6.5449427310        1.3742224259
 H       -13.4276071199        8.2232433223        1.5396944486
 H       -13.8423183829        7.2006562918        2.9959982115
 H       -10.0070629917        7.3137668782        3.0947206171
 H       -11.4947837658        7.8989247119        3.9383697650
 H       -10.9420569163        8.7371437494        2.6100242265
 H        -7.9427570155        1.5350328456        3.7636411802
 H        -7.2309540885        0.6492190944        2.4148922713
 H        -8.9665483999        0.8848506403        2.3931079033
 H        -6.4033670484        3.5202112310        3.4390270085
 H        -6.2558771031        4.1925850312        1.7590978358
 H        -5.6932617539        2.5804600233        2.2762284829
 H        -9.6873592647       -0.5135511822       -2.2458093811
 H       -10.5891327835        0.0195346238       -3.7014306612
 H       -11.2153388496       -1.2915150067       -2.8822583839
 H       -12.1300934722        1.6817103768       -3.5852572770
 H       -12.8138598349        2.1872069725       -2.0660969208
 H       -13.4011670471        0.8197088862       -2.7868053129
 H       -11.1729450297       -6.5710713696       -1.0378307185
 H       -10.3648511211       -6.5446568074        0.4460082558
 H        -9.8592022250       -5.5484901850       -0.8279739450
 H       -12.8449322708       -6.0800853006        1.6274253162
 H       -13.4169202012       -6.1818190286       -0.0273129374
 H       -13.6647205144       -4.7545948768        1.1190628123
 Na       -8.1525456006        6.0234970452        0.0498087868
