117

 C       -10.1296250332       -5.9466904282        1.8756192003
 C       -10.9257078435       -4.9136836253        1.0803056838
 O       -10.5668875211       -3.7498462158        1.1319021997
 C       -12.3843992203       -5.3154412666        0.4208686638
 C       -12.6185452262       -4.2142790717       -0.6658768666
 O       -12.0127736975       -4.3143854113       -1.7537901422
 C       -13.3944286077       -2.8814399814       -0.4013602727
 C       -13.1737567110       -1.7323624494       -1.4109844184
 C       -12.5314226401       -0.4771118812       -0.7224039410
 O       -12.7297553655       -0.3387952914        0.4624752765
 C       -11.4803884730        0.3431283212       -1.5118227585
 C       -10.7172432734        1.3836375622       -0.6412541281
 O       -10.5570792974        2.5508237213       -0.9474215249
 C       -10.1045812317        0.9816192914        0.6640492464
 C        -8.5796163433        1.1765299306        0.6378927513
 C        -8.1811357241        2.6650589031        0.9779944599
 O        -7.8100146360        3.4646634227        0.1421474296
 C        -8.0500033987        3.1991458469        2.5662016820
 C        -9.0220978747        4.4750806224        2.7404591241
 O        -9.0084762872        5.4462094551        1.9764521928
 C       -10.0730443964        4.4733157664        3.8569305140
 C       -10.8986174344        5.7445696927        3.8526464760
 C       -11.6719050963        5.8790273662        2.5265279116
 O       -12.1290635871        4.8486634873        2.0207786543
 C       -11.6657903232        7.1646126659        1.6508841728
 C       -10.5885470097        6.8151961736        0.5311072868
 O        -9.4853989748        7.3884548474        0.5641211252
 C       -10.9101014981        5.7528647267       -0.4667974489
 C       -10.9818099499        6.2605354665       -1.9461241426
 C        -9.6543934378        6.2599208406       -2.7316838192
 O        -8.6739220790        5.6671885183       -2.3852113996
 C        -9.6135734678        7.0678790594       -4.1204310043
 C        -9.0496336780        8.5098669989       -3.7484166319
 O        -9.8971534567        9.4027218275       -3.4520186090
 C        -7.6255330460        8.9799358617       -3.9902574015
 C        -7.0725910683        9.6306188259       -2.6362279198
 C        -6.7416327248        8.5915798602       -1.5985436152
 O        -6.8522478560        7.3959110461       -1.8180776610
 C        -6.1191702276        9.0758487444       -0.2235712865
 C        -5.4681673694        7.8034428704        0.5204077655
 O        -6.0519698113        6.7721308900        0.8403853354
 C        -3.9892547092        7.9476999280        0.9412938960
 C        -5.1049055010       10.1588091220       -0.4837592993
 C        -7.2729442066        9.5932440389        0.6786395900
 C        -8.6668847241        6.4419392410       -5.0616238076
 C       -10.9393029389        7.2897119473       -4.8123300517
 C       -13.2075764668        7.4409903556        1.1323817267
 C       -11.2708354694        8.4772878860        2.4240088383
 C        -8.2327733713        2.1206020927        3.5946825153
 C        -6.6191773356        3.7936298881        2.7595698354
 C       -10.3979423706       -0.6719034147       -1.9766831278
 C       -12.1867086370        1.0855332065       -2.5948345926
 C       -12.3502085040       -6.6284645019       -0.3041836890
 C       -13.4041817362       -5.3154121778        1.5890698978
 H        -9.6854418135       -6.7143478566        1.3069883630
 H       -10.9224737698       -6.4152142105        2.4626732464
 H        -9.4134230247       -5.3663118444        2.3951713167
 H       -13.2026787238       -2.4756671180        0.5909286186
 H       -14.4869781077       -3.2156273056       -0.3761537806
 H       -14.1005279139       -1.4891281948       -1.9522253151
 H       -12.5961967564       -2.0508403624       -2.2119876570
 H       -10.2730876756       -0.0757892169        0.9624558761
 H       -10.4932973416        1.6290231184        1.4522708787
 H        -8.1275857671        0.9724154748       -0.3381394102
 H        -8.1256209834        0.5620665062        1.4284119056
 H        -9.5803540033        4.4230100070        4.8422917534
 H       -10.7356565434        3.6353363278        3.6235371075
 H       -10.2164580317        6.5808127257        3.9995050277
 H       -11.6617949123        5.7328618349        4.6208571701
 H       -11.9117751388        5.3673802422       -0.2529007942
 H       -10.1962204940        4.9111884616       -0.3708972157
 H       -11.2949005888        7.3156446678       -2.0329744408
 H       -11.7617807750        5.7292406202       -2.4832104873
 H        -7.7409959552        9.9137282756       -4.6349123051
 H        -6.8703005722        8.2836923369       -4.3309344629
 H        -7.7223477749       10.4848740195       -2.3551319763
 H        -6.0940538535       10.1515477147       -2.8553101860
 H        -3.3828794807        8.1152830609        0.1263634325
 H        -3.6719111074        7.0486137549        1.5474829447
 H        -3.7788784540        8.8284633800        1.5343353042
 H        -4.7869576507       10.6857851819        0.4547127218
 H        -5.6247704044       10.9451487226       -1.0936676356
 H        -4.1629524818        9.7199589394       -0.8867337463
 H        -6.9924351486        9.7371660124        1.7107939136
 H        -8.0706661705        8.8399341285        0.5643577161
 H        -7.4281289239       10.5606941231        0.2072638646
 H        -7.9639843539        5.7792257705       -4.5663759117
 H        -8.2232015075        7.0993357156       -5.8111183232
 H        -9.2460467029        5.6540879046       -5.5695455002
 H       -10.7058156032        7.6998549136       -5.7779398704
 H       -11.5280399269        7.9771030460       -4.1767329452
 H       -11.5880083466        6.3954288129       -4.9614463546
 H       -13.5369312591        6.5290980824        0.6624351698
 H       -13.1496521024        8.1948566072        0.3457695817
 H       -13.7895133965        7.8857736402        1.9136578472
 H       -10.3993151702        8.3035704313        2.9637134680
 H       -12.0436320950        8.7249943975        3.1010646155
 H       -11.1481539125        9.3037362696        1.8352900923
 H        -8.2249062559        2.6204124863        4.5576917160
 H        -7.4394134629        1.3829507383        3.6425299930
 H        -9.2229528443        1.6543476589        3.3889395132
 H        -6.4947622813        4.1199868337        3.8176983358
 H        -6.3601825037        4.6526705552        2.2197881271
 H        -5.9141919305        3.0098154380        2.5100449171
 H       -10.0820845841       -1.2303024478       -1.1178598447
 H        -9.5135110215       -0.0761761912       -2.4325179048
 H       -10.8135821602       -1.3808033476       -2.6964938407
 H       -11.6085118666        1.9117830200       -2.8589903767
 H       -13.1269322011        1.4871930938       -2.2060013579
 H       -12.3078920608        0.5207416987       -3.4488560960
 H       -13.3328631939       -6.7842634561       -0.7930298872
 H       -12.1315447759       -7.4974976452        0.2588478277
 H       -11.6278436210       -6.5607328471       -1.1246495157
 H       -13.1256131677       -6.0983633850        2.3262497323
 H       -14.4177027813       -5.5145658012        1.1604969599
 H       -13.3528188920       -4.3731295724        2.1307937023
 Na       -7.8799074045        5.9251663504       -0.2746238028
