117

 C       -10.3600179741       -5.4488352590       -0.0199231477
 C       -11.5244521640       -5.4684973031        1.0164049949
 O       -11.3640906977       -5.2168190955        2.1911107213
 C       -13.0018708818       -5.5337682059        0.4972328742
 C       -13.0953807926       -4.2379138526       -0.4012898661
 O       -12.5873979546       -4.2295051425       -1.5392182207
 C       -13.7888876492       -2.9664416393        0.0721257423
 C       -13.3556144946       -1.6654104769       -0.6997452100
 C       -12.2832802193       -0.8208473340       -0.0824302352
 O       -12.3412754749       -0.7327018558        1.1413974191
 C       -11.2527982649       -0.0284842457       -0.8801860990
 C       -10.8948314350        1.3406632113       -0.3000296214
 O       -11.1568367973        2.3442391335       -0.9019514938
 C       -10.3232163903        1.4887400401        1.1576112375
 C        -8.7786338771        1.7436484617        1.1232212246
 C        -8.3602599121        3.2150861826        1.2592114531
 O        -8.2378542408        3.8450689955        0.2436476669
 C        -7.9271394270        3.8220590394        2.6257685070
 C        -8.6559577665        5.1848818027        2.8181323617
 O        -8.2567475872        6.1975476482        2.2682216223
 C        -9.8608205556        5.1996865923        3.6995421799
 C       -10.7402912769        6.3773051842        3.3728695125
 C       -11.8357565168        6.2195449078        2.3282446269
 O       -12.6340150145        5.2982420096        2.3920571163
 C       -11.9170168251        7.3028855652        1.1360777938
 C       -10.8328402472        6.7249598306        0.0918735027
 O        -9.6373789359        6.8898318671        0.3764809956
 C       -11.3449719690        5.6963289892       -0.9140817535
 C       -11.2682855993        6.1575391316       -2.3461482551
 C        -9.8140010034        6.2237560635       -2.7998986040
 O        -8.9477211883        5.6653314686       -2.1115459837
 C        -9.3383409321        6.8094660847       -4.1267005541
 C        -8.4109551385        8.0403647165       -3.8446550182
 O        -8.8899170587        8.9585719862       -3.1885569622
 C        -6.9622029679        8.3149609286       -4.4055324912
 C        -6.1741046199        9.0128094670       -3.3105718684
 C        -6.2662273874        8.2897217093       -1.9746080117
 O        -6.6406923134        7.1588453405       -1.9629962043
 C        -5.9137674084        9.0467202167       -0.7131413642
 C        -5.1516999259        8.0768179757        0.3040450071
 O        -5.7056054036        7.0930671640        0.6938561238
 C        -3.8392263832        8.5107765574        0.9928849921
 C        -5.2110455939       10.3478963394       -0.9953621525
 C        -7.2858216814        9.4114443535        0.0627301032
 C        -8.4192378134        5.7731841920       -4.9627105766
 C       -10.4322815948        7.3696567182       -5.0576050606
 C       -13.3736244309        7.3749664485        0.6532487781
 C       -11.3746750541        8.6862934097        1.5958855581
 C        -8.1816473276        2.9019279485        3.8536032699
 C        -6.3959863058        4.2138645999        2.5168799773
 C       -10.0138586370       -1.0001596554       -0.6776118177
 C       -11.6503455728        0.0656300728       -2.4070964474
 C       -13.3378491051       -6.9020986220       -0.2857718924
 C       -13.9457770429       -5.4319364294        1.7381471768
 H        -9.3666304258       -5.5669266172        0.4609242535
 H       -10.4604152132       -4.4632958918       -0.5026096095
 H       -10.6239082565       -6.1675038309       -0.8609873198
 H       -13.4350819875       -2.9168765848        1.1049519717
 H       -14.8410959198       -2.9619246807        0.0498032465
 H       -14.2103332851       -0.9642675271       -0.5923925996
 H       -13.1157756554       -1.8910139501       -1.7110719818
 H       -10.5172958800        0.6244945274        1.7482434887
 H       -10.9189565804        2.2868442864        1.5964622080
 H        -8.3881279620        1.2777602233        0.1970858935
 H        -8.2677697894        1.1387405934        1.9185200581
 H        -9.5598880421        5.2057285231        4.7748418831
 H       -10.3837854479        4.2187321537        3.6777930262
 H       -10.1852681193        7.2553775060        3.2156040256
 H       -11.2191698622        6.5479708736        4.3225407306
 H       -12.3925742190        5.4601290665       -0.8237875323
 H       -10.7285110743        4.8502844207       -0.7288494171
 H       -11.7291326471        7.1605842033       -2.3348745364
 H       -11.7755094125        5.4771809058       -3.0373622858
 H        -6.9465644083        8.9284586800       -5.3642324947
 H        -6.3993255970        7.4368896951       -4.7448697010
 H        -6.7091574116        9.9735963380       -3.1652663965
 H        -5.1594822639        9.2331138773       -3.5769119639
 H        -2.9490116199        8.3865756581        0.3633509586
 H        -3.5309106368        7.9972102311        1.9459931110
 H        -3.9632861809        9.5185180781        1.2871368904
 H        -4.8143136370       10.8213571951       -0.1370333005
 H        -5.7666544500       11.1228709873       -1.4272780574
 H        -4.2922047771       10.2631273147       -1.5522564986
 H        -7.0303663984        9.7076301825        1.1038842060
 H        -7.9201071573        8.5034855811        0.0367396989
 H        -7.7842039890       10.2121536989       -0.5001035136
 H        -7.7431831031        5.1951903828       -4.3047986133
 H        -7.8545293850        6.2861284211       -5.7471196250
 H        -9.0060191814        4.9876162710       -5.4171398952
 H       -10.0228267119        7.9760381360       -5.8390185905
 H       -11.2347779708        7.9552968904       -4.6309557618
 H       -10.9541038115        6.5142236012       -5.5420791803
 H       -13.8153959788        6.3710366671        0.7583580537
 H       -13.4329831773        7.7167197017       -0.3837842196
 H       -13.8869044225        8.1810979612        1.1889770798
 H       -10.2784424373        8.5663877436        1.8235115880
 H       -11.9362128460        9.0226043569        2.5398921203
 H       -11.4424571254        9.5213453945        0.8349343306
 H        -7.8847082818        3.3505409948        4.8130566836
 H        -7.5874013710        1.9671583436        3.8310162322
 H        -9.1734454658        2.6025541601        4.0104249515
 H        -5.9894484386        4.3795952076        3.4812535068
 H        -6.2877100002        5.1786823336        2.0086050227
 H        -5.8676379714        3.4993411278        1.8899089622
 H        -9.7341996212       -1.0180023639        0.4002651024
 H        -9.1453409987       -0.7322313732       -1.1899233737
 H       -10.3366504126       -2.0213890840       -0.8823818651
 H       -11.0065790637        0.7699373064       -2.9806218296
 H       -12.7021375156        0.4523730374       -2.5920591900
 H       -11.4062218186       -0.9025893671       -2.8980310089
 H       -14.4184274117       -6.9307443927       -0.2726836223
 H       -12.8899937288       -7.7890408139        0.2467408667
 H       -13.0395569586       -6.8680839690       -1.3499032001
 H       -13.9012484132       -6.3390154284        2.3246281542
 H       -14.9572456013       -5.2197301140        1.4171782036
 H       -13.6747921939       -4.5604295518        2.3596870967
 Na       -7.5598898411        6.1733710845       -0.0831398371
