117

 C       -13.3414025658        5.1249608985        1.5616633910
 C       -12.1289237335        4.2487214726        1.5632407493
 O       -11.7861851002        3.7189695876        0.5110456554
 C       -11.4015513705        4.1113366566        2.8732838122
 C       -11.6236176294        2.5609516285        3.4561948117
 O       -10.9699195073        1.6964053716        2.8821180111
 C       -12.4405725657        2.3394423191        4.7210385341
 C       -13.5083325943        1.2694398681        4.5147676198
 C       -14.1273663206        1.3821498933        3.1801271404
 O       -14.3627060779        2.4181934565        2.6644116111
 C       -14.7869856818        0.0341848466        2.3908855774
 C       -13.6805071928       -0.2713543781        1.3113954184
 O       -12.6916228147        0.4788014947        1.3481475580
 C       -13.8798547213       -1.3520438305        0.3277257421
 C       -12.8110212006       -2.3843187616        0.1816544285
 C       -11.5918478940       -1.8005093518       -0.6680260647
 O       -11.6385133927       -0.6858274244       -1.0505659627
 C       -10.2478436181       -2.6698038568       -1.0860341395
 C        -9.4011780786       -2.6540682499        0.1664332237
 O       -10.0317595014       -2.8537236018        1.1954916946
 C        -7.9233647648       -2.5776461028        0.1020732626
 C        -7.2462195543       -1.5611941337        1.0920041698
 C        -7.7425240154       -0.1860001564        0.6193097672
 O        -8.9218095265       -0.0560897003        0.4536295365
 C        -6.6397150125        0.9205327187        0.7159853462
 C        -7.1972251309        2.4725631250        0.1639799790
 O        -8.3597560816        2.6202162115        0.0609739487
 C        -6.2221997653        3.5265690204       -0.0844620883
 C        -6.8933886470        4.5697206863       -1.0580201939
 C        -6.1246212912        5.9555232540       -1.2062146490
 O        -4.9629374947        6.0928689232       -0.9016340696
 C        -6.7855886309        7.1033865923       -2.1874453236
 C        -8.2037663737        7.6038820351       -1.7421128422
 O        -9.2054092117        6.8438873991       -1.7896720233
 C        -8.3470503804        9.2006435473       -1.5634345614
 C        -8.1155168279        9.8888847310       -2.9715011604
 C        -9.0901957203       11.1180035259       -3.2318071529
 O       -10.0595102627       11.1232199765       -2.5422309031
 C        -8.7945828504       11.9108552139       -4.6200966653
 C        -7.8061969089       11.2604683903       -5.7184071233
 O        -7.7234155005       10.0801236002       -5.8748935658
 C        -6.7859198707       12.0667823812       -6.5260946189
 C       -10.2229203374       12.1173153585       -5.3738342849
 C        -8.1784364492       13.2893526948       -4.1729641729
 C        -5.5955781290        8.1366832576       -2.1974894474
 C        -6.8343379044        6.5850541246       -3.6428576291
 C        -6.3977661137        1.3318098181        2.2338247618
 C        -5.2843747444        0.5432311937       -0.0757664746
 C       -10.5835454439       -4.1772999158       -1.2303391201
 C        -9.6567647979       -1.9679350164       -2.3126067746
 C       -15.2620884085       -1.2843790480        3.2926188887
 C       -16.1908572189        0.4531846276        1.7789442097
 C        -9.8328746580        4.1360539653        2.7869329773
 C       -11.7869846863        5.1890479957        3.9725060378
 H       -14.0159726849        4.9392016314        2.4330504779
 H       -13.8983725049        4.8111307988        0.7569018419
 H       -13.0388717506        6.1732245854        1.4927327291
 H       -12.9774379311        3.2320796144        4.9536433110
 H       -11.6837238036        2.2998878637        5.4767847482
 H       -14.3785108606        1.5711325503        5.1820321948
 H       -13.2126428464        0.2512529020        4.8606847168
 H       -13.7162459689       -0.6808996820       -0.5485395071
 H       -14.9660649698       -1.7284148961        0.2856846492
 H       -13.1569572753       -3.2687095744       -0.3087123854
 H       -12.3522496937       -2.6736484837        1.1590637508
 H        -7.4207586083       -2.2834615581       -0.7782438938
 H        -7.5466945569       -3.5838374418        0.3764977045
 H        -6.0597150730       -1.6502452033        1.0726438888
 H        -7.5551469383       -1.6933812128        2.1543236233
 H        -5.5249242864        2.9537036255       -0.6096402243
 H        -5.8805987308        4.0834413275        0.7849429107
 H        -7.8883887637        4.7813732827       -0.6961007628
 H        -6.8786224403        4.1657650929       -2.0600257218
 H        -7.5500797074        9.3683975325       -0.8329287223
 H        -9.2632094491        9.5680523975       -1.2276350770
 H        -8.3250962545        9.2473022294       -3.8480618523
 H        -7.0563144647       10.2611276794       -3.1338245974
 H        -6.1150188015       12.6175631466       -5.8133961986
 H        -7.3968747221       12.7810004645       -7.0102887172
 H        -6.3180844459       11.3805534913       -7.2875623205
 H        -9.9781921428       12.7251934497       -6.3277850632
 H       -10.9705386085       12.7539254511       -4.7739556008
 H       -10.7285570133       11.0896178393       -5.5056007784
 H        -8.1252319067       13.1718460689       -3.1107183288
 H        -8.9846725550       14.0289902658       -4.5153340680
 H        -7.2047636995       13.1007564436       -4.5067022665
 H        -5.4694686166        8.7564584935       -3.1504778479
 H        -4.6277426203        7.6026865749       -2.0582356355
 H        -5.5048802016        8.7823297125       -1.3510905322
 H        -5.8742002169        6.1080618146       -3.9134381553
 H        -6.8830211846        7.4560564280       -4.2092479283
 H        -7.6773935562        5.8788122568       -3.8900225201
 H        -5.5522240240        1.9614231627        2.2396315837
 H        -6.2947779672        0.3425350243        2.7376709870
 H        -7.2707481632        1.7270169783        2.7300835054
 H        -4.5738663085        1.4096074999       -0.0429690492
 H        -5.6458702062        0.4352879782       -1.0614327953
 H        -4.8207821957       -0.3401737580        0.2843395881
 H       -11.4817331980       -4.2102864622       -1.9153398574
 H       -10.6332760615       -4.9382745354       -0.3783931773
 H        -9.7475205633       -4.6090377223       -1.9129272093
 H       -10.2061668362       -2.3055420344       -3.1798226174
 H        -8.6781366759       -2.4612394815       -2.4758174609
 H        -9.6118637794       -0.8927165717       -2.2119510857
 H       -14.4645254014       -1.8226819480        3.8293376174
 H       -15.7388789834       -1.9648284486        2.5647504380
 H       -15.9581989285       -0.8819854843        4.1195198612
 H       -16.8686706033        0.9218531645        2.4899991300
 H       -16.5001539443       -0.5211116318        1.3771554990
 H       -15.9535262405        1.2299505139        1.0352561599
 H        -9.4752477974        3.4961002086        1.9619591763
 H        -9.2187640821        3.9944151511        3.6708123911
 H        -9.5412440382        5.1272538920        2.4222818097
 H       -11.1773057268        5.1068121434        4.8343771408
 H       -12.8826357054        5.1416185564        4.2919514817
 H       -11.4476860096        6.0640295212        3.4309804978
 Na      -10.8813577090        1.6408323466        0.0431008466
