117

 C       -10.8909768762       -5.0447918233        0.5507532203
 C       -12.1190537529       -5.7966789796        1.0350511507
 O       -11.8993609326       -6.7301426341        1.7529584493
 C       -13.5628595361       -5.4159402114        0.4967997142
 C       -13.4373078537       -4.0060516615       -0.1278616626
 O       -12.9250292385       -3.8507756171       -1.2391650804
 C       -14.0404384079       -2.6451750940        0.5148615635
 C       -13.3643680347       -1.4032005036       -0.0872932058
 C       -11.9340383169       -1.0628551130        0.4665480100
 O       -11.6377085053       -1.3176074747        1.6307333101
 C       -11.0191214002       -0.0695601002       -0.4477277928
 C       -10.9994785935        1.4815335813        0.1092964139
 O       -11.4864727409        2.3667052979       -0.5502879784
 C       -10.3925629217        1.7984055415        1.6070254405
 C        -8.8315612933        1.9206882942        1.5377301346
 C        -8.3747638596        3.3713729804        1.5129808413
 O        -8.2138584187        3.8746597171        0.4219887631
 C        -7.9431579124        4.1604714625        2.8157084434
 C        -8.7540841261        5.5531394476        2.9499048481
 O        -8.4107298537        6.5270196133        2.3687096802
 C        -9.9510335607        5.7233958526        3.9821153094
 C       -10.8678384596        6.8322089856        3.4544086235
 C       -11.5974919020        6.2121017221        2.2039004470
 O       -11.6914973491        5.0294727540        1.9770740085
 C       -12.0233619749        7.2098928927        1.0383256475
 C       -10.8660844087        6.9358394229       -0.0240569440
 O        -9.8522909684        7.6364331653        0.0869974137
 C       -10.9349312767        5.8848971446       -1.1708159917
 C       -10.6871189367        6.4801351674       -2.5512892218
 C        -9.3355753025        5.9800850781       -3.0852675993
 O        -8.5051469668        5.4353176713       -2.3511602993
 C        -9.0314532360        6.3322738325       -4.5736672684
 C        -8.1485793642        7.7432573311       -4.3118562595
 O        -8.7515315915        8.7317087109       -3.9603561864
 C        -6.6436333663        7.6954510431       -4.5929664776
 C        -5.8385746402        8.6204119389       -3.6551879357
 C        -6.1396112448        8.1796804341       -2.1807244472
 O        -6.6468711884        7.1327714831       -1.8937806307
 C        -5.7810396614        9.1062673400       -0.9557720902
 C        -5.2540222327        8.1891862704        0.2433569916
 O        -6.0125021374        7.4029706582        0.7269759519
 C        -3.8490290363        8.4018838016        0.6491691133
 C        -4.7686286753       10.2341813844       -1.3670010180
 C        -7.1448112314        9.7616051047       -0.5649639444
 C        -8.2146551379        5.2428731831       -5.2532790107
 C       -10.3110024378        6.6709883526       -5.2766339161
 C       -13.3957948639        6.7128545793        0.5229033476
 C       -11.9783417987        8.6629394385        1.4422881915
 C        -8.1487259252        3.2984222354        4.0459375837
 C        -6.4486476643        4.5742388745        2.7717779157
 C        -9.6525362962       -0.7285263200       -0.4474115153
 C       -11.6124420472       -0.0044644743       -1.8526443591
 C       -13.8691909245       -6.3696485017       -0.6735398469
 C       -14.4676571043       -5.6467324941        1.7269097854
 H       -10.0279267972       -5.6719839101        0.8225516710
 H       -10.8390400347       -4.0612396179        0.9526041437
 H       -10.8859420745       -5.1542754608       -0.5812905405
 H       -13.9309468524       -2.7228655937        1.5534702462
 H       -15.1271209705       -2.6581292159        0.3317682871
 H       -13.9340143225       -0.5843260191        0.0602828215
 H       -13.2786339698       -1.4926429924       -1.1628964554
 H       -10.6354054048        1.0113349407        2.2825255422
 H       -10.8580807799        2.7265368389        1.9191556814
 H        -8.5993458678        1.3917627837        0.6248475846
 H        -8.3546510539        1.3035708780        2.3683603880
 H        -9.4699349315        6.0707025979        4.9320863869
 H       -10.5681047571        4.7991672673        4.0900236319
 H       -10.3100646858        7.6865639116        3.1755965017
 H       -11.5549957126        7.0230273070        4.2381669288
 H       -11.8794684320        5.3515309001       -1.2017535847
 H       -10.1685834133        5.1413174454       -1.1057839178
 H       -10.6213749825        7.5809974588       -2.6208753250
 H       -11.4332154589        6.1557783765       -3.2937344099
 H        -6.5878280278        8.0228992884       -5.6106767149
 H        -6.2640334936        6.6185606435       -4.4011269287
 H        -6.1221573635        9.6406659314       -3.8129788900
 H        -4.7562944651        8.4791584368       -3.8552788769
 H        -3.1807545484        7.8928338338       -0.0642538243
 H        -3.6508096290        8.0859491194        1.6956382627
 H        -3.5532329205        9.4020857868        0.4229817411
 H        -4.4671381054       10.9034231784       -0.5747137587
 H        -5.1082753754       10.8289368859       -2.1966292628
 H        -3.9025243086        9.9072102896       -1.8998935570
 H        -7.1178133023       10.1308798480        0.4925952522
 H        -7.9483492368        8.9967443358       -0.5819049282
 H        -7.4464294816       10.5753216283       -1.2791751275
 H        -7.2899780744        5.0086967267       -4.7081151230
 H        -7.8233264269        5.4680521017       -6.2765823577
 H        -8.9028521468        4.3786775630       -5.2995843900
 H       -10.1459113221        6.9724337566       -6.3659976119
 H       -10.6538443212        7.6313434680       -4.8731804796
 H       -11.1065334952        5.9688990761       -5.2143707286
 H       -13.4434914952        5.6458497917        0.3851765562
 H       -13.7094632930        7.1669274895       -0.4248555699
 H       -14.1908206059        6.8214251591        1.2821530553
 H       -10.9196805308        8.8843729970        1.7067562818
 H       -12.5243625179        8.9444815064        2.3973009203
 H       -12.2080832787        9.2998160996        0.5464987373
 H        -7.8043827551        3.8689991845        4.9161787573
 H        -7.4827191520        2.4481759439        3.9726012912
 H        -9.1496720816        3.0628389222        4.2840932779
 H        -6.0655393843        5.0564180319        3.6419196506
 H        -6.4167897051        5.1575317066        1.8409916199
 H        -5.8447120604        3.7048091159        2.6880047246
 H        -9.3892577648       -0.9821066060        0.6216412259
 H        -8.8490003685       -0.0927573749       -0.7705077499
 H        -9.5548269988       -1.6717777218       -1.0258961120
 H       -11.0063909945        0.7032662765       -2.4604906697
 H       -12.6473681953        0.3654599678       -1.8331374837
 H       -11.6677408591       -1.0210836524       -2.2633709952
 H       -14.8808452928       -6.2458285038       -1.0709957570
 H       -13.6843955591       -7.3838848233       -0.3300188402
 H       -13.1619831027       -6.0710208811       -1.4079551865
 H       -14.3683094251       -6.6949752410        2.0617835505
 H       -15.5030342999       -5.5582021610        1.4480579549
 H       -14.3152427750       -4.9515709293        2.5952609164
 Na       -7.9428314763        6.0853590511       -0.0062531388
