117

 C       -13.4726149209        5.1318687326        1.4776446717
 C       -12.1470701094        4.3215425703        1.6366468580
 O       -11.6663343106        3.6260809916        0.7218865885
 C       -11.2556448186        4.2410819453        2.8994984110
 C       -11.6737867871        2.6960694457        3.5435274211
 O       -11.0940130068        1.8077551790        2.9968036356
 C       -12.4328929818        2.4850569597        4.7821111845
 C       -13.5923322372        1.4074699787        4.5439239719
 C       -14.3433286753        1.5029659133        3.2466452316
 O       -14.2345563398        2.4873429612        2.5732538089
 C       -14.9535716986        0.1633285948        2.4783484034
 C       -13.7477985487       -0.2952020717        1.3413399297
 O       -12.6891621569        0.2782412343        1.4193547226
 C       -13.9949011679       -1.3676398619        0.2459055942
 C       -12.7105961481       -2.2595770556        0.1646882756
 C       -11.6041449214       -1.7024683693       -0.6927747836
 O       -11.6618796933       -0.5489937178       -1.0747216843
 C       -10.3932394616       -2.6918726550       -1.2637839022
 C        -9.4180424274       -2.6298807954        0.2176334075
 O        -9.9576358895       -2.7927720364        1.2535198419
 C        -7.7590950246       -2.7168105972        0.1895247515
 C        -7.2992235379       -1.5892933138        1.2512679144
 C        -7.7792994120       -0.1395870890        0.9135252347
 O        -8.9241788723       -0.0040496204        0.4967177883
 C        -6.7191670378        1.0708079064        0.7896995734
 C        -7.2912401260        2.3613749548        0.1234239654
 O        -8.4675493921        2.7324020301        0.1878630524
 C        -6.1215559526        3.6382809048       -0.2551704191
 C        -6.9281151085        4.5913379020       -1.1528792270
 C        -6.0397921831        5.9408786255       -1.3325928662
 O        -5.1047771925        6.1434888508       -0.6475029028
 C        -6.7127821864        7.0426017073       -2.2593992388
 C        -8.1591683347        7.5007710976       -1.8108696429
 O        -9.0335648346        6.7288208430       -1.6477593357
 C        -8.5682152680        9.0291013651       -1.6197936222
 C        -8.0296006387        9.8593743680       -2.8278505114
 C        -9.0032722870       10.9341320585       -3.3513174829
 O        -9.9859972370       11.3327596767       -2.7654897390
 C        -8.6120898143       11.7733028174       -4.6610967773
 C        -7.7525897815       11.0992930435       -5.7030979421
 O        -7.7607709274        9.9158048036       -5.8944301163
 C        -6.8328213437       12.0766651935       -6.6186549581
 C       -10.0433208948       11.9245224949       -5.3235332141
 C        -8.0743455160       13.2705683131       -4.2773421834
 C        -5.6957007504        8.1570264534       -2.3691715985
 C        -7.0018507666        6.4194894134       -3.7087915813
 C        -6.1746906296        1.3775889997        2.2586435548
 C        -5.4765611690        0.6578733840        0.0404455308
 C       -10.8004996062       -4.1584056047       -1.3221117902
 C        -9.6594669248       -2.1928597661       -2.4778053958
 C       -15.1983942856       -1.2230820360        3.1370307063
 C       -16.1946957523        0.6204440541        1.7013650778
 C        -9.7892240848        3.9727937859        2.6271958069
 C       -11.5195477628        5.3076523595        3.9855559366
 H       -14.2485921258        4.6805864990        2.1030427365
 H       -13.9029431726        4.9208575080        0.4580539884
 H       -13.3172522981        6.1868826797        1.7149580004
 H       -12.6340545956        3.3813657446        5.2928034364
 H       -11.6377891757        2.0932825370        5.3642514184
 H       -14.3443827029        1.3131292276        5.4328403860
 H       -13.0103346749        0.5191414136        4.5686564773
 H       -13.9788248110       -0.7034784812       -0.6458097346
 H       -14.9545128613       -1.8936171229        0.2961185934
 H       -12.8878547757       -3.3043540381       -0.2379358201
 H       -12.1972636746       -2.3720814167        1.1591929881
 H        -7.1970644660       -2.3707566207       -0.7226025569
 H        -7.2807520311       -3.7259170585        0.5883249250
 H        -6.2197988788       -1.6641075418        1.3224074221
 H        -7.6909653410       -1.8816916592        2.2455321658
 H        -5.3149054691        3.2031012025       -0.8782273138
 H        -5.8601821506        4.2082461409        0.7137061786
 H        -7.7395649674        4.9240719787       -0.5596054632
 H        -7.2551639755        4.0300290385       -2.0217670838
 H        -8.2246588296        9.2212588503       -0.6038661558
 H        -9.6753209573        9.0870481400       -1.6772640968
 H        -7.7630069649        9.2519143681       -3.7087532536
 H        -7.1110941409       10.4594066467       -2.6016887555
 H        -6.4596167101       12.8944312789       -6.0189295972
 H        -7.6105841319       12.4524921732       -7.2800071766
 H        -6.1046236727       11.4823720047       -7.2799897974
 H        -9.9799519705       12.6047576883       -6.1978254568
 H       -10.7328417653       12.3582579523       -4.6451731325
 H       -10.4207399275       10.9021953557       -5.5455360902
 H        -8.5025444024       13.5087891643       -3.3195381249
 H        -8.4438799212       13.8177751408       -5.0954980906
 H        -7.0773205793       12.8750337601       -4.0629091246
 H        -5.8724659347        8.7251587274       -3.2510789838
 H        -4.5929257050        7.9471464516       -2.1966997230
 H        -5.7954703197        8.9164619433       -1.5855969232
 H        -6.0905622586        6.4661511848       -4.2855049321
 H        -7.7466390766        7.0098676442       -4.3078948333
 H        -7.2866696917        5.4550738872       -3.6151582186
 H        -5.0789449578        1.3620108922        2.3712310269
 H        -6.7215089695        0.7245444719        2.8293463888
 H        -6.5262642990        2.3108429359        2.5249056173
 H        -4.7690412038        1.3953973182       -0.0959378824
 H        -5.7446932882        0.1310210292       -0.9156934197
 H        -5.1749145129       -0.0680124779        0.7562651117
 H       -11.6492107387       -4.2622233119       -2.0547924042
 H       -10.9824664368       -4.7625791858       -0.3885344113
 H        -9.9682368287       -4.6642052698       -1.7670340861
 H       -10.2335708263       -2.5549416792       -3.2891169875
 H        -8.8765883668       -2.8801444270       -2.5705594221
 H        -9.3759074153       -1.1274402726       -2.5691872346
 H       -14.4167745516       -1.4579399158        3.9049124358
 H       -15.2062567543       -1.9542612385        2.3049713497
 H       -16.1147655331       -1.1950292120        3.7126945715
 H       -16.7492209704        1.1791173867        2.3932373273
 H       -16.6975981586       -0.2350478036        1.3195753211
 H       -15.8709837663        1.4907749397        1.0444377668
 H        -9.6646657528        3.2954916898        1.8455929139
 H        -9.1429260307        3.7070654150        3.4183433739
 H        -9.3377181109        4.9431485070        2.2128434402
 H       -11.0666315467        5.0967186817        4.9832446472
 H       -12.6141628613        5.2118851774        4.1123625410
 H       -11.1092205201        6.2425001600        3.6238733989
 Na      -10.8244522705        1.5224442482        0.0599483230
