117

 C       -10.6174559126       -5.1288698949        0.2638924006
 C       -11.8145976064       -5.7260907217        1.0120819536
 O       -11.6544945273       -6.3765186137        2.0237268268
 C       -13.1859838566       -5.3644491048        0.5405492414
 C       -13.2270689541       -4.0583968006       -0.3217396949
 O       -12.9375445820       -4.1038464324       -1.4975889548
 C       -13.7353425694       -2.7939676920        0.4652446929
 C       -13.5291564538       -1.4590016812       -0.2957041608
 C       -12.1921721393       -0.7761323394        0.3035199755
 O       -11.9133090281       -1.0661994618        1.4421513291
 C       -11.1230532542       -0.0327527770       -0.6064487847
 C       -10.8705515514        1.3793240942       -0.0419625128
 O       -11.0817994316        2.3388957313       -0.7135908469
 C       -10.5507318684        1.5666962521        1.4145218070
 C        -9.0221412683        1.7846397312        1.5872866576
 C        -8.5710479505        3.2627147189        1.4889277507
 O        -8.7371791343        3.9378142791        0.4629166774
 C        -7.8678206042        3.9125521854        2.7616993056
 C        -8.5840463464        5.3242587638        2.8315371649
 O        -8.3550547673        6.2260723286        2.0525079795
 C        -9.8812919408        5.4554009695        3.6918289962
 C       -10.7574515312        6.6546477857        3.3294146680
 C       -11.7107123275        6.2385382205        2.1548607038
 O       -12.2485677063        5.1468680224        2.1639981065
 C       -12.0750475144        7.3051248542        1.0077363651
 C       -10.9501429161        6.9860277724        0.1122995946
 O        -9.9029033322        7.6602949892        0.1701122621
 C       -10.9781440271        5.8684453272       -0.8545815399
 C       -10.8830061034        6.3379568545       -2.3497578723
 C        -9.6004883833        5.9141466181       -3.0138766986
 O        -8.7168152346        5.2526652055       -2.4383212352
 C        -9.1497290513        6.5117973717       -4.3647897917
 C        -8.2146196479        7.7833956651       -4.0226325195
 O        -8.7678186584        8.7504188918       -3.4967737636
 C        -6.7355551688        7.7313249347       -4.3743701295
 C        -6.0038154491        8.8451013309       -3.4878143553
 C        -6.0833753144        8.2354097728       -2.0784963407
 O        -6.3890395761        7.0660138864       -1.9534028902
 C        -5.8532749905        9.1713103764       -0.8280693696
 C        -5.1218817670        8.2253841692        0.2649259673
 O        -5.6844278259        7.3343625587        0.8294677851
 C        -3.7007882279        8.5548613572        0.6276469345
 C        -5.0861943272       10.4345973709       -1.2215700091
 C        -7.2908434729        9.4421597717       -0.1564911364
 C        -8.3736802000        5.5075882222       -5.2487305463
 C       -10.3494751928        7.1632721401       -5.2211940191
 C       -13.4252706479        7.1426124908        0.3064286932
 C       -11.9242145456        8.7478615954        1.6485873884
 C        -7.9497790266        3.1304780567        4.0592305298
 C        -6.3178337074        4.1001443098        2.5035521950
 C        -9.8436713254       -0.9430360167       -0.4811154745
 C       -11.5234667637       -0.0123096848       -2.1237296147
 C       -13.6763962426       -6.5697918827       -0.4725821231
 C       -14.1878859026       -5.3388167149        1.7157181158
 H        -9.6422946337       -5.5179798966        0.7262679461
 H       -10.7452357615       -4.0362874969        0.3020090505
 H       -10.5880676017       -5.5446341295       -0.7899390854
 H       -13.2444229373       -2.8441360569        1.3937836855
 H       -14.7819159609       -2.9839245171        0.7338521675
 H       -14.3192184206       -0.8495007797       -0.2281808624
 H       -13.3271520664       -1.6895011027       -1.3724529003
 H       -10.9026026795        0.6781909390        1.9155510566
 H       -11.0364271084        2.4465248824        1.8065090583
 H        -8.5836100481        1.3441954322        0.6964737170
 H        -8.6920130563        1.3279993456        2.5489597762
 H        -9.5857207155        5.4328015556        4.7725371282
 H       -10.4338015345        4.4910223715        3.5174530794
 H       -10.1403596241        7.5134943237        3.1448203411
 H       -11.3793064337        6.8516869510        4.1670644416
 H       -11.8701383675        5.2924188181       -0.8976617262
 H       -10.1093648915        5.2756110241       -0.5929323454
 H       -10.8795807636        7.4205829191       -2.4517420039
 H       -11.6676169576        5.8782137398       -2.9680855638
 H        -6.6669555273        7.9098704508       -5.4107159378
 H        -6.3651108857        6.6680928225       -4.1182707995
 H        -6.5931725672        9.7497335559       -3.5897516928
 H        -4.9162659237        8.9637513654       -3.7683017079
 H        -3.2025961902        9.0363664271       -0.2525597038
 H        -3.1372176362        7.7783855984        1.0754207392
 H        -3.6563934228        9.3928935052        1.3783911196
 H        -4.6646487381       10.9744040589       -0.3968396977
 H        -5.6156263416       11.1874538504       -1.8040226328
 H        -4.2389014716       10.2815394392       -1.8294803072
 H        -7.2531515502       10.4765985925        0.1883770996
 H        -7.4347482984        8.8144199965        0.6968870431
 H        -8.1238103975        9.4876008775       -0.8739022362
 H        -7.8624089137        4.7500964010       -4.6708551638
 H        -7.7210848848        5.9745501752       -5.9990268627
 H        -9.0910221588        4.9956892243       -5.9098046874
 H        -9.9734593443        7.6903629111       -6.1405655479
 H       -10.9283982003        7.8517180327       -4.6325127038
 H       -11.0299319071        6.5008530622       -5.6191431117
 H       -13.5367132834        6.0636826555        0.1312110400
 H       -13.5360253828        7.6535511429       -0.6747278537
 H       -14.2394169750        7.3547218995        1.0260240943
 H       -10.9134961993        8.9829023844        1.9811056487
 H       -12.6015682570        8.8994608445        2.5067435796
 H       -12.2726802459        9.5701673728        0.8860072195
 H        -7.7459603738        3.9054088039        4.8173775430
 H        -7.1725870438        2.3915024137        4.1288375459
 H        -8.8365300983        2.5041672141        4.2657223686
 H        -5.8236007188        4.6040042506        3.3545282842
 H        -6.1586192858        4.7570848035        1.6151603939
 H        -5.8848525913        3.1174085585        2.4449807862
 H        -9.3566666009       -0.9200497078        0.4747784621
 H        -9.1401859189       -0.6514657834       -1.2378354924
 H       -10.0121225439       -1.9606534559       -0.7490655912
 H       -10.7576109164        0.5975895410       -2.7188042405
 H       -12.5494684956        0.2730640384       -2.3309474912
 H       -11.4341950295       -1.0794337377       -2.4994261369
 H       -14.7369182375       -6.4708465120       -0.8309906891
 H       -13.5973946128       -7.5005374560        0.1095336169
 H       -12.9522526412       -6.5555065782       -1.2906429545
 H       -14.3463907098       -6.3662284907        2.0646267844
 H       -15.1246920760       -5.0836822623        1.2751245502
 H       -13.9406718250       -4.7803191997        2.6204241418
 Na       -7.7496614307        6.3160133743       -0.0979002684
