117

 C       -13.2603251713        5.0813800468        1.4739072666
 C       -12.0688297755        4.2649530128        1.6340768166
 O       -11.7641552548        3.5654836441        0.6898655367
 C       -11.1961562192        4.1850218887        3.0313654567
 C       -11.5590416913        2.7616138464        3.6234077990
 O       -11.2727992549        1.8208625718        2.9557620606
 C       -12.6907242358        2.5280301385        4.8939878281
 C       -13.5955256130        1.2850814020        4.6348261997
 C       -14.2640224445        1.4172945812        3.1131680971
 O       -14.2520545846        2.5285761408        2.5055649889
 C       -14.9280405037        0.2559667905        2.3448965745
 C       -13.7891122896       -0.1248270679        1.3279257659
 O       -12.6555452733        0.1795151506        1.5364267198
 C       -14.0075513236       -1.3251514800        0.2758888986
 C       -12.7161938111       -2.1624896586        0.1244218280
 C       -11.5892871618       -1.6142729666       -0.8909602664
 O       -11.4857799981       -0.4176260933       -1.1991110579
 C       -10.3270483274       -2.7380004087       -1.1515127029
 C        -9.4098060160       -2.6489507013        0.1970068322
 O        -9.8941296466       -2.7389353766        1.3334269814
 C        -7.8976277715       -2.5555532354        0.2374422444
 C        -7.3809882048       -1.5115307273        1.2925678495
 C        -7.7687509253       -0.0585537470        0.8999701506
 O        -8.9569464301        0.0639077514        0.5794305937
 C        -6.7076469055        1.1482928643        0.9735868303
 C        -7.3302868079        2.4554448285        0.3616107487
 O        -8.5039131162        2.6931115650        0.1694115675
 C        -6.3442573424        3.4967852530       -0.4051807528
 C        -6.9888555996        4.6643745318       -1.1773996796
 C        -6.2178423392        5.9462108469       -1.2795457081
 O        -5.2806534945        6.1461373915       -0.4846841441
 C        -6.6783445221        7.0309108784       -2.4051411669
 C        -8.1179928459        7.3956646114       -1.8358695003
 O        -8.8099235763        6.4955329626       -1.4377453046
 C        -8.6654516326        8.8679216340       -1.8721344065
 C        -8.0082815552        9.9288547391       -2.7611039948
 C        -8.8777488317       10.9796874969       -3.3630484394
 O        -9.8996536695       11.3818582635       -2.8159161404
 C        -8.4788969945       11.6967892351       -4.7175049552
 C        -7.6439912150       10.9835162581       -5.7006479975
 O        -7.7377473059        9.7434604604       -5.8885752581
 C        -6.9469552438       11.9021079009       -6.7714589010
 C        -9.8673929717       11.8444580109       -5.4720706392
 C        -8.0713013171       13.1659445818       -4.2649889342
 C        -5.6675520797        8.2283920332       -2.5556462504
 C        -7.0885220830        6.2903451917       -3.7897498282
 C        -6.1367304420        1.4911405401        2.3999291020
 C        -5.5360121254        0.5331275743       -0.0274339819
 C       -11.0338395489       -4.0478699810       -1.3461480301
 C        -9.7021281768       -2.3429565184       -2.4466310124
 C       -15.1176772070       -0.9702247582        3.2307729895
 C       -16.1930167219        0.7948526739        1.5320840524
 C        -9.7464416732        4.1353065538        2.5093424883
 C       -11.3443077722        5.4821211604        4.0229533433
 H       -14.0644338560        4.4712500913        1.8582630090
 H       -13.5708175199        5.1075287921        0.3750987095
 H       -13.1796369268        6.0464065011        1.9921749543
 H       -13.1818140280        3.5286447406        4.9491239902
 H       -12.1780652569        2.5068059767        5.8594025536
 H       -14.3980463857        1.2690359880        5.3389133891
 H       -12.9172456616        0.4636161532        4.8528012146
 H       -14.5524802732       -1.1971144123       -0.6511082376
 H       -14.6120880025       -1.9298338172        0.8762668938
 H       -13.0142393257       -3.2446242852       -0.0853663873
 H       -12.1351211704       -2.1345336873        1.0511640963
 H        -7.3777460891       -2.3430485471       -0.7878451592
 H        -7.4901095960       -3.4962151083        0.6920336639
 H        -6.4107607453       -1.7911326390        1.5460560452
 H        -8.0228022792       -1.7387152416        2.1418435289
 H        -5.6571952293        2.9069207111       -1.1374511539
 H        -5.8668238000        3.9158360197        0.5128945447
 H        -8.0108334777        4.9064279153       -0.8217153036
 H        -6.9921142679        4.2709042123       -2.2101416828
 H        -8.5951602041        9.1209723277       -0.7913883605
 H        -9.7980412674        8.7524089923       -2.1279705158
 H        -7.4915049404        9.5452216266       -3.6332993418
 H        -7.2849963556       10.4545636288       -2.1812751732
 H        -6.5402277981       12.7103516628       -6.2235078215
 H        -7.6770844918       12.2268641569       -7.6127375567
 H        -6.2484162548       11.2905953162       -7.2149523319
 H        -9.8464914239       12.4834536936       -6.2604122689
 H       -10.5919711545       12.1707688151       -4.7658430274
 H       -10.0799113994       10.8854680002       -5.7660959716
 H        -9.0119750779       13.5909227972       -3.9690909538
 H        -7.7518979232       13.5648893797       -5.1305665896
 H        -7.5287602312       12.9531538580       -3.3690575806
 H        -5.9069356321        8.8255639915       -3.4048568835
 H        -4.6508775717        8.0787417285       -2.3323662993
 H        -5.8642730377        9.0298204940       -1.7439557847
 H        -6.4900169198        6.5401534200       -4.6491052092
 H        -8.1264401424        6.4371536193       -4.1205696936
 H        -6.9711503049        5.2335809630       -3.5765372410
 H        -5.1637219051        1.0384312314        2.5980528890
 H        -6.8474450615        1.3480676024        3.1770852929
 H        -5.9740979654        2.5651055892        2.1989750582
 H        -4.7446381655        1.2293912001       -0.2676164953
 H        -6.0122513134        0.1120414474       -0.9276728300
 H        -5.1301237709       -0.2946846398        0.5746250260
 H       -11.6771978948       -3.9418090721       -2.1881800689
 H       -11.5506562218       -4.4499765901       -0.5542833650
 H       -10.2894920685       -4.7585471738       -1.5604445305
 H       -10.5442245999       -2.5874332228       -3.0871056570
 H        -9.0216909283       -3.0679914174       -2.8115920920
 H        -9.3848910792       -1.3214413376       -2.5561028065
 H       -14.4708445841       -0.8635700646        4.0894558783
 H       -14.9734162794       -1.9011767553        2.6921073801
 H       -16.0688721407       -0.8890944897        3.6510536807
 H       -16.6807705165        1.1397333976        2.4420692885
 H       -16.7144940147        0.0212604880        1.0126107638
 H       -16.0042462213        1.7306772560        1.1536360073
 H        -9.6164940747        3.3214847496        1.7754856761
 H        -9.0086684765        3.8909118248        3.2749633773
 H        -9.3592370512        5.0335663368        2.0475743800
 H       -10.8481670274        5.2535170637        5.0221292282
 H       -12.3556783652        5.6758344395        4.2119077992
 H       -10.7450849150        6.2561311630        3.5235235476
 Na      -10.7470478960        1.3690285230        0.2546805955
