117

 C       -11.2602479531       -5.2858485226        0.9335652652
 C       -12.7159984191       -5.7628515976        1.1255813969
 O       -13.0490666976       -6.7578706734        1.7309388428
 C       -13.8430343181       -4.9001734198        0.4283546513
 C       -13.4012035384       -3.4566270126        0.2662654226
 O       -12.9526305921       -3.0301003949       -0.7787364271
 C       -13.6895300629       -2.4040553948        1.4527903229
 C       -13.1820379783       -1.0153394548        1.0887839614
 C       -11.7032728683       -0.9892072407        0.8657320628
 O       -11.0497769696       -1.7184151103        1.6073952712
 C       -10.9979087501       -0.0215602727       -0.0821292797
 C       -10.8338356045        1.3551491316        0.6062578758
 O       -11.3347436930        2.3702372937        0.2075751807
 C        -9.8921987932        1.4304545733        1.9066674479
 C        -8.4391418224        2.0667241252        1.7016409565
 C        -8.2774958942        3.5518639074        1.7166721435
 O        -8.1762423814        4.1529665207        0.6772632626
 C        -7.9302957878        4.3032484961        3.0544920660
 C        -8.7111775816        5.6783868720        3.0405035662
 O        -8.3153426259        6.5871880576        2.3405782042
 C       -10.0012298993        5.9269436988        3.8467939266
 C       -10.9103600982        6.8520629486        3.0657567124
 C       -11.5761083267        6.1177528197        1.8542679637
 O       -11.4927636571        4.9312172963        1.6418818575
 C       -12.2981436335        6.9376490827        0.7318041832
 C       -11.2236943251        6.9027316189       -0.3718018887
 O       -10.1699957360        7.3892578275       -0.0983778523
 C       -11.5122978444        6.1601270653       -1.6286924749
 C       -10.6051935716        6.4557674733       -2.8339351841
 C        -9.2601002923        5.7870914803       -2.9911716360
 O        -8.6260338338        5.3034252408       -2.0589339117
 C        -8.5788993580        5.7236667065       -4.4780716367
 C        -7.8750217545        7.1523961660       -4.6038854328
 O        -8.6142456473        8.1296761530       -4.3571079438
 C        -6.4333158214        7.3207103456       -4.8529722410
 C        -5.9709615418        8.4408425426       -3.8720114744
 C        -6.1390312853        8.1209422058       -2.4320448494
 O        -6.8991879150        7.2009534419       -2.1401122469
 C        -5.6107938521        9.1028838999       -1.2965212154
 C        -5.1703617376        8.2638871149        0.0162980348
 O        -5.7945549854        7.3137232860        0.4707502748
 C        -3.8526983255        8.5985353867        0.6525905203
 C        -4.5104995294       10.0131468423       -1.9070059206
 C        -6.7867523251       10.0695886045       -0.9134175812
 C        -7.6977614215        4.4667318147       -4.5561793668
 C        -9.6875358162        5.5768186393       -5.6684436271
 C       -13.5837006390        6.2274925817        0.2572086291
 C       -12.7290862289        8.3709204234        1.1201769261
 C        -8.2075800507        3.4912837658        4.3491361030
 C        -6.3787979955        4.6110604628        2.8238295889
 C        -9.5958857399       -0.5729772704       -0.5094339353
 C       -11.6960011034        0.2267518768       -1.5067340172
 C       -13.8988172941       -5.5101104671       -1.0637716521
 C       -15.2768919069       -5.0437620704        1.0947344975
 H       -10.6324861007       -5.9794246591        1.4675733107
 H       -11.3218782354       -4.4206214962        1.5317724290
 H       -10.9455431158       -4.9582758372       -0.0796080923
 H       -13.1468723709       -2.6707381941        2.3417567936
 H       -14.7304783188       -2.4036621514        1.6056161013
 H       -13.4688646242       -0.4394122741        1.9396760499
 H       -13.6825158785       -0.5345974906        0.1400431784
 H        -9.7173153478        0.4689393952        2.3749524141
 H       -10.4915688371        2.0113965480        2.5644739125
 H        -8.2009330986        1.6593633100        0.6570023050
 H        -7.7740020469        1.6457702506        2.4500553803
 H        -9.8192050081        6.2305624942        4.9129394624
 H       -10.5213902532        4.9427484907        3.9572710562
 H       -10.2976826753        7.6320158162        2.6485628739
 H       -11.6434701935        7.3491669981        3.6372321345
 H       -12.5499892839        6.3003472524       -1.8570451738
 H       -11.3661882169        5.1031978089       -1.4191932834
 H       -10.5132745153        7.5279091678       -3.0252491681
 H       -11.1082346856        6.1484867809       -3.7874997129
 H        -6.2976699802        7.5812069113       -5.8827880051
 H        -5.9234621466        6.3525436599       -4.8176847104
 H        -6.4917823795        9.3414586345       -4.1942273078
 H        -4.9482343505        8.7753945483       -4.0335289872
 H        -3.0965713411        8.3481297240       -0.0831978471
 H        -3.6144037406        7.9873399088        1.5132173612
 H        -3.7651248953        9.6462737620        1.0135393822
 H        -4.0664005001       10.6657132114       -1.1430308315
 H        -4.9288749374       10.5576672932       -2.7826222270
 H        -3.7061841397        9.3659148491       -2.1734902295
 H        -6.4050474553       10.8972040810       -0.3231347254
 H        -7.4236134207        9.4988275976       -0.2725375794
 H        -7.3688602547       10.5697630030       -1.7051304079
 H        -6.8224792201        4.4859485212       -3.9173401462
 H        -7.4545835539        4.2831014696       -5.6071806185
 H        -8.2643593684        3.5556486721       -4.2960354987
 H        -9.2017887725        5.1422987449       -6.5944779474
 H       -10.2009661321        6.5535162673       -5.8225850220
 H       -10.4078104568        4.8231286236       -5.4525181957
 H       -13.5345794232        5.1923750494       -0.0081875114
 H       -14.0527731466        6.7420010880       -0.5990002423
 H       -14.3683087900        6.2231756807        1.0316495272
 H       -11.9242998661        9.1135773116        1.0929677369
 H       -13.2495259291        8.3223211473        2.1064730157
 H       -13.5101797888        8.7665517458        0.4098604932
 H        -7.5927343558        3.9962574562        5.0601747751
 H        -7.9683584022        2.4550200930        4.2703595774
 H        -9.2727979729        3.4500182475        4.5523019137
 H        -6.0526477071        5.2863175286        3.6152236476
 H        -6.2999589826        5.2344855885        1.9208192416
 H        -5.8723392362        3.6855493082        2.7037836261
 H        -9.0038112019       -1.1032479670        0.2262888689
 H        -9.0100198596        0.2657789039       -0.9904473535
 H        -9.6936367418       -1.2026405687       -1.3959369901
 H       -10.9000441086        0.5245728244       -2.2175279107
 H       -12.3844205231        1.0123890710       -1.4886736500
 H       -12.1316803947       -0.7157923582       -1.8496426023
 H       -14.6824397191       -5.0303319382       -1.6440657643
 H       -14.0961336000       -6.5439054016       -0.9542870271
 H       -12.9200548103       -5.3635949235       -1.4785491129
 H       -15.6095563764       -6.1061699912        1.0906367962
 H       -16.0857112339       -4.5865836785        0.4935361408
 H       -15.3866975365       -4.7198438567        2.1048735732
 Na       -7.9632942383        6.5823894393       -0.0734546153
