117

 C       -11.0840527867       -5.0751184324        0.9525912744
 C       -12.3998817343       -5.8421688750        1.0506959957
 O       -12.5033715113       -6.8713743275        1.6815597213
 C       -13.6273347275       -5.1982306307        0.4047878431
 C       -13.3361770901       -3.7125362642       -0.1012757352
 O       -13.1240660364       -3.4893314795       -1.2768629173
 C       -13.5950949053       -2.4948988356        0.9483296634
 C       -13.1320505137       -1.1678808942        0.5029586075
 C       -11.6356732548       -0.8680230256        0.7607317912
 O       -11.2075276158       -1.1479219126        1.8505975367
 C       -10.9020206485        0.0473575268       -0.2508192437
 C       -10.9642159150        1.4068610373        0.4793288907
 O       -11.7212974475        2.2412280484        0.0169724839
 C       -10.1314046732        1.5866747840        1.7924145904
 C        -8.6217081376        2.0198515244        1.5430853033
 C        -8.4256905259        3.5180366777        1.6211930846
 O        -8.4447115029        4.1998933080        0.6138088637
 C        -8.1181776592        4.1606460692        3.0513499654
 C        -8.9040399198        5.4623037179        3.0573205501
 O        -8.7520821004        6.2740657271        2.1175281398
 C        -9.9138819242        5.8022129026        4.1449426035
 C       -11.0598401691        6.6738078648        3.5584326529
 C       -11.4856289375        6.0378096503        2.1817889513
 O       -11.3648646207        4.8525021491        1.9459443808
 C       -11.9799941970        6.9169284866        0.9778736283
 C       -10.9365781574        6.8527441502       -0.1504551283
 O        -9.9999733069        7.6335411360       -0.1895495670
 C       -11.2024618566        5.9897859825       -1.3255733521
 C       -10.7669293436        6.4304755402       -2.7981116432
 C        -9.4474779879        5.7498874096       -3.2029882028
 O        -8.8009505571        5.0984073630       -2.4141268025
 C        -8.8356764638        6.1028408634       -4.6380131257
 C        -8.0393963232        7.5300208658       -4.6403809658
 O        -8.6244025391        8.5879281429       -4.5617651750
 C        -6.5066283226        7.5483461522       -4.7567864355
 C        -5.8651594997        8.6019695134       -3.7092547415
 C        -6.0485984562        8.1604418462       -2.2862768632
 O        -6.5681099109        7.0775983239       -2.0885143519
 C        -5.5520300145        9.2111519460       -1.1752667625
 C        -5.1493676814        8.3394089029        0.0916299472
 O        -5.9405304630        7.5578326385        0.6211660284
 C        -3.7312362764        8.5770742830        0.7311807342
 C        -4.4250307484       10.1204354340       -1.6256015855
 C        -6.8440903131       10.0527490627       -0.7195469523
 C        -7.8245460847        4.9320899061       -4.9611920488
 C        -9.9700781456        6.2224033934       -5.7164999165
 C       -13.4061855175        6.5100751703        0.6297419289
 C       -12.1498295985        8.4135718381        1.4867152490
 C        -8.4853967854        3.1964546483        4.2007357621
 C        -6.6316216860        4.4333471490        3.0694375500
 C        -9.4742284004       -0.4605424017       -0.4145991193
 C       -11.6720397768        0.1588711007       -1.5641302322
 C       -14.0067464110       -6.0877265224       -0.8665904012
 C       -14.8105724402       -5.2814174381        1.4251149173
 H       -10.3427369422       -5.6327505256        1.5059445354
 H       -11.1532737494       -4.0846393814        1.4989913300
 H       -10.8446551613       -4.9233762862       -0.0676595069
 H       -13.2897785809       -2.8671854573        1.9021778885
 H       -14.6576755187       -2.4633816046        0.9509090364
 H       -13.6894340563       -0.3824583472        1.0479618168
 H       -13.4541919966       -1.0750014895       -0.4405670965
 H       -10.2350349414        0.6609034542        2.3094459572
 H       -10.4956642185        2.3752491937        2.4377221997
 H        -8.3021622501        1.7165705867        0.5308488275
 H        -7.9488649650        1.3990413242        2.1988272682
 H        -9.3391800462        6.4589458159        4.8805130306
 H       -10.3209770613        4.9005332037        4.6476577321
 H       -10.6128265044        7.5843801285        3.2920737773
 H       -11.8397695148        6.7746157371        4.2713020753
 H       -12.2787173463        5.8431129758       -1.4154269638
 H       -10.8632885030        5.0324977954       -1.0113573460
 H       -10.6646557421        7.5276404497       -3.0311704177
 H       -11.5710912733        6.1804367007       -3.4907136432
 H        -6.3935430896        7.9935874778       -5.8127958487
 H        -5.9855868079        6.6477827736       -4.6935062407
 H        -6.2366487018        9.6467424680       -3.8272077529
 H        -4.8102558269        8.7110319513       -3.9298323913
 H        -2.9701467676        8.5492142217       -0.0585893004
 H        -3.5442915396        7.7195755814        1.3698435872
 H        -3.5673004809        9.5186267916        1.2802835440
 H        -3.9168193946       10.7171602313       -0.8928759896
 H        -4.8447272120       10.8528279361       -2.3056909113
 H        -3.6325549041        9.5129882307       -2.1601442624
 H        -6.4780000353       10.7681819310        0.0428765736
 H        -7.6839456109        9.4556766737       -0.2757945525
 H        -7.3090469404       10.5871880894       -1.5507377311
 H        -6.9014382302        5.0642021852       -4.3355116196
 H        -7.4861159107        4.9154468246       -6.0088860252
 H        -8.1729553204        3.9502374006       -4.6014244210
 H        -9.4227170037        6.1967009512       -6.6295189517
 H       -10.5182636635        7.1820983085       -5.6837639285
 H       -10.7769654622        5.3823728349       -5.7128256546
 H       -13.5765657628        5.4487778239        0.3952448267
 H       -13.8534785366        7.0159963843       -0.1984793690
 H       -14.0653471040        6.8206577292        1.4172108700
 H       -11.2030235151        9.0468159355        1.5762636091
 H       -12.8361795682        8.5178704822        2.3778374916
 H       -12.7527768002        8.8724119365        0.6857369195
 H        -8.1290273710        3.6511299217        5.1051619991
 H        -8.0861287535        2.2035102304        4.1119698510
 H        -9.5719872980        3.2283577738        4.2685487514
 H        -6.3693094108        4.4472214935        4.1211232076
 H        -6.3550831247        5.2707060422        2.5083524298
 H        -6.1943770381        3.5743062313        2.5435347513
 H        -9.0212034600       -0.8370148728        0.5098309764
 H        -8.7732254435        0.3126772713       -0.7782031211
 H        -9.4720499329       -1.3617244076       -1.0522823861
 H       -11.1680774509        0.6044035582       -2.3876107090
 H       -12.5586310819        0.7836576468       -1.3191474347
 H       -11.8627548271       -0.8607806564       -1.9014473350
 H       -14.8925281988       -5.6894881565       -1.2492420794
 H       -14.0851324713       -7.0591126118       -0.4250811778
 H       -13.2446515976       -6.1055440574       -1.6306015975
 H       -15.0906704177       -6.2488510266        1.7993627767
 H       -15.6722567782       -4.7247618689        1.0136267323
 H       -14.6276555934       -4.7142561109        2.3557736560
 Na       -8.0868265165        6.2872228053       -0.4085284732
