117

 C       -11.2651052755       -5.5440318243        0.9979516672
 C       -12.8293721191       -5.7279857570        1.1395520104
 O       -13.2863011942       -6.5868828100        1.8637502351
 C       -13.8852964144       -4.7718725054        0.3688371635
 C       -13.4754206022       -3.1935602802        0.2645710037
 O       -12.8628888867       -2.6883563167       -0.6576505528
 C       -13.8818504986       -2.2736866554        1.4289793065
 C       -13.1507390363       -0.9255528588        1.2036708372
 C       -11.6251602573       -1.0777341483        0.9092509630
 O       -11.0010643979       -1.9362551253        1.4556838586
 C       -10.9598544993       -0.0660464039       -0.0679716014
 C       -10.6690704851        1.3809612882        0.6459317456
 O       -11.1962394889        2.3564861068        0.1214281814
 C        -9.8320970556        1.4940495385        1.8842757270
 C        -8.3922162665        2.0874529645        1.7234833332
 C        -8.2031360992        3.6366677672        1.7521967597
 O        -8.3003513772        4.1391972548        0.6466891348
 C        -7.8247617870        4.4395445120        2.9812180413
 C        -8.6202823535        5.8300881490        2.8793298518
 O        -8.1212822419        6.7396538840        2.2565130392
 C        -9.9455107317        5.9986109419        3.6099189782
 C       -10.9361443390        6.9032906882        2.8813525875
 C       -11.6532589016        6.0602164319        1.7522053822
 O       -11.6217505342        4.8469973212        1.7539237509
 C       -12.4642943152        6.9298462404        0.5922304155
 C       -11.3794273575        6.9153223784       -0.4079343677
 O       -10.2389563054        7.3735856690       -0.1620552131
 C       -11.4697920520        6.0635673463       -1.6401585646
 C       -10.6381020192        6.5279615068       -2.8532349520
 C        -9.3227066944        5.6595946840       -2.9530345116
 O        -8.8750383182        5.1008029461       -1.9898873243
 C        -8.5101552927        5.6152827667       -4.3534096277
 C        -7.9334275032        6.9863958105       -4.5064228611
 O        -8.6056569964        8.0090231244       -4.6192754805
 C        -6.3781659241        7.1155452783       -4.6789379215
 C        -5.6994319914        8.2157921023       -3.8851127919
 C        -6.1515416860        8.1600805606       -2.4362266353
 O        -6.9381239286        7.3154234861       -2.1570724602
 C        -5.6095600770        9.1237713319       -1.3688577876
 C        -5.1656043833        8.2952723690       -0.1373122749
 O        -5.8534067584        7.4361019914        0.3402860600
 C        -3.7788849436        8.6442132948        0.5302849001
 C        -4.4893576774       10.1195046265       -1.9462252884
 C        -6.8160235331        9.8295600959       -0.7329734154
 C        -7.5025372184        4.4631909961       -4.2510394299
 C        -9.5353985626        5.4535676405       -5.4649317986
 C       -13.6926981488        6.2205241305        0.2321864560
 C       -12.7797642302        8.3113276214        1.0755279720
 C        -8.0056679807        3.6711099554        4.3798862600
 C        -6.2363077284        4.7567140988        2.9349215975
 C        -9.5983748213       -0.6992443817       -0.4890636314
 C       -11.9842080257        0.1721718651       -1.1838555683
 C       -13.8635171917       -5.2910466086       -1.1475056603
 C       -15.2429561899       -4.9482320808        1.0364717092
 H       -10.7793363628       -6.3212851854        1.6411802337
 H       -10.8767041929       -4.4528140264        1.0908500956
 H       -11.1843718155       -5.8239699716       -0.0425067052
 H       -13.6692261226       -2.8351146141        2.3548969001
 H       -14.9826879856       -2.1511430833        1.1999041247
 H       -13.1315844259       -0.2625324905        2.1447415192
 H       -13.7099378511       -0.4241422348        0.4696162102
 H        -9.6922862817        0.4964891650        2.3183353060
 H       -10.4006218797        2.0986146894        2.6342097391
 H        -8.0526045770        1.7509192100        0.7950104664
 H        -7.8423064909        1.6365383489        2.5565749754
 H        -9.7205262732        6.2698484133        4.6225762564
 H       -10.4350924974        5.0587652280        3.7640330920
 H       -10.4858462130        7.8736023420        2.5381935721
 H       -11.8535150574        7.2446998758        3.4858718668
 H       -12.5558869445        6.0547150218       -1.9159398001
 H       -11.1347142017        5.0440057301       -1.3699419761
 H       -10.5458654409        7.6216645994       -2.7550687811
 H       -11.1216992239        6.3644601343       -3.7859305511
 H        -6.1880878687        7.1460822840       -5.7973079417
 H        -5.8194137157        6.2281089499       -4.4844309023
 H        -6.1285054483        9.2064139125       -4.1925616117
 H        -4.6651604443        8.3948614948       -4.2299096240
 H        -2.9107739024        8.6203300857       -0.1508064798
 H        -3.4835302212        7.9916829774        1.3307310241
 H        -3.9026790103        9.6026667659        1.0364380123
 H        -4.2137396842       10.6659110644       -1.0533067351
 H        -4.8498018863       10.6925075366       -2.7604492678
 H        -3.6486094826        9.4617053530       -2.3048998057
 H        -6.5504039856       10.4344328028        0.1653126075
 H        -7.5956715583        9.0648670737       -0.4451566393
 H        -7.1978584190       10.5997315956       -1.4026312307
 H        -6.8314696313        4.7381813078       -3.3938237561
 H        -6.9086270873        4.2945565076       -5.1761358197
 H        -8.0091681304        3.4974889807       -4.0704878248
 H        -9.0317867023        5.2859108000       -6.3628545326
 H       -10.1299414795        6.3416669792       -5.5847332528
 H       -10.0896301628        4.4902113470       -5.2869413745
 H       -13.5690993151        5.1489938819       -0.0151232246
 H       -14.1801424292        6.6399611807       -0.6313179494
 H       -14.3923274431        6.0744978874        1.0483446929
 H       -11.9060995164        8.8997692499        1.4198831145
 H       -13.5751535788        8.2672763345        1.8180272922
 H       -13.1786913863        8.9071520157        0.2278084945
 H        -8.0870208336        4.4743555448        5.1062398251
 H        -7.1573991965        3.0122489953        4.6181508881
 H        -8.8563307450        2.9476153400        4.3079014716
 H        -6.0045947401        5.0448027622        3.9624883220
 H        -6.0308006561        5.6422395395        2.3915436470
 H        -5.6678072285        3.8121992314        2.6862438812
 H        -8.9842202818       -0.8562746775        0.3889963259
 H        -9.0637603387       -0.2302176346       -1.2711535256
 H        -9.7801524460       -1.6897208265       -0.8987312023
 H       -11.5397340778        0.7297870878       -2.0158902779
 H       -12.8512199150        0.8141576976       -0.7569076177
 H       -12.4459251599       -0.8171917119       -1.4407951440
 H       -14.4731481977       -4.6455307660       -1.7582768543
 H       -14.3850089072       -6.2625352745       -1.1474872710
 H       -12.8067683814       -5.2879938779       -1.4590967395
 H       -15.5687697113       -5.9618388806        1.1085336800
 H       -16.1130267775       -4.4965037911        0.5895559907
 H       -15.1260542307       -4.5832871025        2.0835085630
 Na       -8.0335385930        6.3638024126       -0.1347230281
