117

 C       -11.5735951062       -5.4455546030        0.7796690647
 C       -13.0599582283       -5.5148014673        1.1618469787
 O       -13.4082147507       -6.0704200017        2.1738898450
 C       -13.9974637138       -4.5547835355        0.2270072484
 C       -13.3892173407       -3.1157543103        0.3504797929
 O       -12.6433211467       -2.6148472177       -0.4991749622
 C       -13.7832095816       -2.3081273331        1.5715233119
 C       -13.0544358026       -0.9771608515        1.6171620050
 C       -11.5598913716       -1.0050041488        1.0803094512
 O       -10.8342477677       -1.8180678140        1.5883020186
 C       -10.9433763231        0.0072964688        0.0220519838
 C       -10.5077889344        1.4137899742        0.6985638849
 O       -10.7852131750        2.4824618177        0.1503445730
 C        -9.7231360975        1.3946208988        2.0320876914
 C        -8.2747482165        1.9998640004        1.8484423838
 C        -8.2612180561        3.6031325464        1.6413244649
 O        -8.3584104859        4.0931857075        0.5248680182
 C        -7.8450427464        4.4937512921        2.8772931679
 C        -8.6556036583        5.8322573206        2.7755909699
 O        -8.2078043588        6.7170492681        2.0776235330
 C        -9.9643475728        6.0226369965        3.5250393567
 C       -10.8967697913        6.9224453328        2.7554060396
 C       -11.7725164430        6.0737480478        1.8131474803
 O       -12.0392745039        4.9325073534        2.1856996708
 C       -12.4774989708        6.8009166058        0.6248056789
 C       -11.3757350696        6.8844461752       -0.5765308247
 O       -10.3560212535        7.4983999591       -0.2497320606
 C       -11.6571454011        6.0955709257       -1.9136924281
 C       -10.5874786007        6.4601146794       -2.9941233278
 C        -9.2879063579        5.5304942468       -2.9455522308
 O        -9.0169898301        4.7855490501       -2.0533380005
 C        -8.4283640595        5.3997136379       -4.2779526494
 C        -7.7156892023        6.8024681923       -4.5712696791
 O        -8.4531574615        7.7232050764       -4.7626070694
 C        -6.1223437240        6.9687958578       -4.6134098596
 C        -5.6485794893        8.2309251242       -3.7682895230
 C        -6.2586465757        8.0692046785       -2.3948719851
 O        -7.1885638966        7.3466598586       -2.1366416757
 C        -5.7403719933        9.1762604036       -1.2759582615
 C        -5.1049152931        8.2665875841       -0.1253725415
 O        -5.6646903078        7.2625220496        0.2022610650
 C        -3.7034872906        8.5298216719        0.3209527785
 C        -4.6868802770       10.1992741656       -1.8837726772
 C        -6.9822457983        9.8906706720       -0.7671896779
 C        -7.3927187859        4.2141244635       -3.9517067993
 C        -9.3082284473        5.0731620020       -5.4808159171
 C       -13.7068288514        6.0605540924        0.2541102841
 C       -12.7569919399        8.2238290864        1.0735956211
 C        -7.9573747321        3.8266850509        4.3151351932
 C        -6.2693557804        4.7225826692        2.7179247106
 C        -9.6241662223       -0.6499849820       -0.4689711241
 C       -11.9490315647        0.2153807422       -1.1152693620
 C       -13.9129181669       -5.1465710837       -1.1663013307
 C       -15.4689380223       -4.5490096174        0.7339780146
 H       -11.0758882508       -5.8640405462        1.6133751065
 H       -11.3690763190       -4.3843630273        0.6041600643
 H       -11.3160297500       -6.0395053263       -0.0597425471
 H       -13.4159015323       -2.9774406835        2.3308870986
 H       -14.8421224153       -2.1840806912        1.6875944879
 H       -13.0620949874       -0.7078136259        2.8020722483
 H       -13.6700740536       -0.2985165886        1.0628306921
 H        -9.7521977118        0.4132701735        2.4528805422
 H       -10.1783285039        2.0559393699        2.7682251447
 H        -7.7658932421        1.6474632811        0.9455526006
 H        -7.6510200557        1.6482324713        2.7453442227
 H        -9.8398763048        6.4609304127        4.5365031267
 H       -10.4856628103        5.0748171030        3.8264087680
 H       -10.4560846972        7.7545487873        2.2913379582
 H       -11.6016328825        7.3576697549        3.4168313383
 H       -12.6292904167        6.3166954531       -2.3025860058
 H       -11.5582383265        5.0428450933       -1.6775412851
 H       -10.1772130036        7.4492027775       -2.8020300220
 H       -11.0799221489        6.5141931289       -3.9880992991
 H        -5.8874310521        7.1056335304       -5.6464038688
 H        -5.5895961420        6.0315121526       -4.4159125870
 H        -5.9493018363        9.1295211338       -4.2891627650
 H        -4.5425837501        8.3528358345       -3.6866975054
 H        -2.9206417627        8.3240589524       -0.4391995581
 H        -3.5123107663        7.7961284293        1.1424071012
 H        -3.5912068652        9.4811657591        0.7578789101
 H        -4.4933108464       10.9272049637       -1.1155125390
 H        -5.1331752366       10.6648907307       -2.7401519063
 H        -3.8697346012        9.5818355179       -2.2896502639
 H        -6.7794343526       10.6095370940        0.0031104098
 H        -7.7136981500        9.2107756870       -0.3497145026
 H        -7.4081329511       10.4129176942       -1.5970338896
 H        -6.7627607068        4.5482524997       -3.1501698292
 H        -6.7139413526        4.0317036691       -4.7803767441
 H        -7.9439743393        3.3533322385       -3.6428718354
 H        -8.7731175868        4.8746144255       -6.4236327546
 H        -9.8820452635        5.9600497252       -5.7268085506
 H        -9.9219428769        4.2152093656       -5.1261817775
 H       -13.4879923139        4.9951480589        0.1340884182
 H       -14.0899825101        6.3041132688       -0.7083112804
 H       -14.4943623805        6.0048604275        0.9875511906
 H       -11.7811883181        8.7491904961        1.2002602751
 H       -13.1465033599        8.2693329761        2.1073054279
 H       -13.3788109758        8.7674108745        0.3950323702
 H        -7.5107646854        4.4103715608        5.1582053030
 H        -7.3258978053        2.9532158881        4.1604582252
 H        -8.9425619830        3.5304564740        4.5915501092
 H        -5.9302658232        5.5166140796        3.3599306487
 H        -6.0798969147        5.0506963379        1.7066653009
 H        -5.7517632464        3.8324725287        3.1129543755
 H        -8.8870980107       -0.6869545101        0.4108981886
 H        -9.1112946730       -0.0762058472       -1.2028278968
 H        -9.7310736396       -1.6867597925       -0.8522047805
 H       -11.4814054746        0.8711811390       -1.7759637360
 H       -12.9166745336        0.5670641536       -0.7959507322
 H       -12.2040077516       -0.7195404138       -1.4987526572
 H       -14.7162841219       -4.7948439409       -1.7720248581
 H       -14.0961233315       -6.2204919539       -1.0467139646
 H       -12.9791057382       -4.8420221956       -1.5508099028
 H       -16.0240405245       -5.4604271802        0.5680442324
 H       -16.0485572076       -3.8219035732        0.2039815815
 H       -15.6075427402       -4.2564402755        1.8042774376
 Na       -8.0464737206        6.4425055466       -0.2648312713
