117

 C       -13.6282002380       -6.3642569434        1.0837371455
 C       -13.6699369654       -4.9070080303        1.4504763203
 O       -13.2208333734       -4.4648529861        2.4933521231
 C       -14.1923949302       -4.0014283024        0.2450367606
 C       -13.3605425377       -2.5412144455        0.3717385335
 O       -12.4008059419       -2.3605449555       -0.3308092306
 C       -13.6798390481       -1.6311233650        1.5339544534
 C       -13.0258472784       -0.1796092953        1.5233245992
 C       -11.5153263848       -0.3206342159        1.4748267620
 O       -10.9352542964       -1.1333135226        2.1080773174
 C       -10.5904085388        0.7289403910        0.5328032040
 C        -9.8987533864        1.7257694957        1.5053800244
 O       -10.1961580888        2.9004388858        1.4572247994
 C        -8.7694224854        1.3317092311        2.5236835331
 C        -7.4842107507        2.1097711723        2.2524618404
 C        -7.5747703549        3.6330587678        1.9981114264
 O        -7.2915668653        3.9844628667        0.8646366044
 C        -7.8021144947        4.6038652581        3.1996735934
 C        -8.7597009765        5.7307103983        2.7235405517
 O        -8.4051250041        6.6517478619        2.0029203879
 C       -10.2222504079        5.7755320305        3.2524206794
 C       -11.1019334677        6.7973452501        2.3845163388
 C       -12.1993171238        6.0281804296        1.6038435484
 O       -12.7512801766        5.1066907485        2.0761557327
 C       -12.5998638143        6.4911679007        0.1791321134
 C       -11.2823141591        6.2793371063       -0.7746270503
 O       -10.1195628965        6.6212113415       -0.4446364390
 C       -11.5360280057        5.7220507320       -2.2368127443
 C       -10.4457862899        6.1447956720       -3.2280425131
 C        -9.1637939442        5.2287537348       -3.2488422138
 O        -8.6268407851        4.7815656602       -2.2305348834
 C        -8.4113894367        4.8917860888       -4.6748795498
 C        -7.7497400713        6.2773442108       -4.9245940438
 O        -8.3305419393        7.1656204228       -5.5519322335
 C        -6.2517890035        6.5596132533       -4.5169633199
 C        -6.0567722944        7.9889798115       -3.9561019070
 C        -6.6023062625        7.9782949819       -2.4829069246
 O        -7.5559398062        7.2265940298       -2.2462237328
 C        -6.0103734258        8.7729033480       -1.3217789490
 C        -5.0682556934        7.8188155413       -0.6132464486
 O        -5.4576418198        6.7160862115       -0.1901816984
 C        -3.6717961683        8.2955648929       -0.3338508802
 C        -5.2970182095       10.1175634160       -1.8292341521
 C        -7.2529060603        9.1639473457       -0.4019444218
 C        -7.3892685866        3.8256049346       -4.2908888477
 C        -9.3407874481        4.4122980398       -5.7593273351
 C       -13.8355567841        5.6044180715       -0.2452529900
 C       -12.8125177956        7.9623189430        0.0497953227
 C        -8.3498321310        3.9278976080        4.4088561843
 C        -6.3357015646        5.1834025047        3.5543242100
 C        -9.4206497639        0.0233001708       -0.1335934135
 C       -11.3699492808        1.4537942399       -0.5463622043
 C       -13.8935271472       -4.5747729830       -1.1259888385
 C       -15.6807750785       -3.8979392172        0.4024413133
 H       -13.1628406419       -6.9263329447        1.9041382192
 H       -12.9358131318       -6.4696950986        0.1876238001
 H       -14.6023234926       -6.6456928578        0.7906267932
 H       -13.3440489174       -2.1347934600        2.4603190277
 H       -14.7693705270       -1.5564143856        1.7293029095
 H       -13.3908575698        0.2415623242        2.4062768046
 H       -13.4861669751        0.4170979193        0.7806214914
 H        -8.4981621559        0.2960845824        2.3936282437
 H        -9.2594271048        1.4693987625        3.5009292527
 H        -6.9222177955        1.7136266263        1.4413299885
 H        -6.8850563804        2.0358166432        3.1703232911
 H       -10.2659548547        6.0628219920        4.2824504314
 H       -10.7220122692        4.8396557921        3.0434576678
 H       -10.4671222609        7.4194477012        1.7095585893
 H       -11.6731758815        7.4672574477        3.0414482602
 H       -12.5190290850        5.9565607191       -2.6535711365
 H       -11.6316307439        4.6144117959       -2.1353586893
 H       -10.1942957648        7.1356887689       -2.9625223376
 H       -10.8586397657        6.1152738650       -4.2491179923
 H        -5.6643611522        6.3771891097       -5.4333132155
 H        -5.9991541402        5.9232249967       -3.6535903608
 H        -6.7751091569        8.7019295999       -4.4039484224
 H        -4.9840890361        8.3133262156       -3.9322300481
 H        -3.0987518244        8.5443762931       -1.2813527933
 H        -3.2058836318        7.5182880130        0.1932147602
 H        -3.6248484952        9.2338744179        0.2299306518
 H        -5.0078254542       10.5816609146       -0.9269936070
 H        -6.0271241810       10.6206611736       -2.3917451132
 H        -4.3922398692        9.8307165317       -2.3702568902
 H        -7.0512576716       10.0913062937        0.0860416980
 H        -7.4467073507        8.3885228175        0.3321439070
 H        -8.1878074874        9.3110266648       -0.8652693074
 H        -7.0731958363        4.0901686383       -3.2961980067
 H        -6.5023196830        3.7828038934       -4.9200992142
 H        -7.8030796016        2.8528176386       -4.3894230918
 H        -8.7075097807        4.2686051975       -6.6309315177
 H       -10.0340512963        5.2455606721       -5.8977904030
 H        -9.8212610685        3.3964830504       -5.5976221520
 H       -13.5815418773        4.5786716614        0.1050200939
 H       -14.0674752644        5.6328373619       -1.3016349655
 H       -14.7105949239        5.8441326387        0.3676646104
 H       -12.0480593587        8.5046517912        0.6410140516
 H       -13.7979237415        8.3472034720        0.3900249918
 H       -12.4854366068        8.2773406630       -0.9871923805
 H        -8.5898332576        4.7337976409        5.1050676387
 H        -7.6848368844        3.3015377583        4.9701564385
 H        -9.2476560795        3.2915872148        4.3819091552
 H        -6.3572459653        5.6069998993        4.5381473572
 H        -5.9831863363        5.8875282872        2.8504968036
 H        -5.6704996114        4.3125739891        3.4038642422
 H        -9.2051775624       -0.8889269141        0.5081457169
 H        -8.5737284009        0.6689012632       -0.2074656304
 H        -9.5796218138       -0.3022837779       -1.1788572782
 H       -10.7118133334        1.9242114317       -1.1916034884
 H       -11.9483348596        2.2389292535       -0.0669835983
 H       -11.9057768454        0.7919730660       -1.1912395987
 H       -14.2181356980       -3.8646867266       -1.8677941384
 H       -14.4439312445       -5.5198831708       -1.2345843205
 H       -12.8514282917       -4.7926623095       -1.1201612773
 H       -16.0965144845       -4.8682843696        0.6041211899
 H       -16.1957255106       -3.6530644515       -0.4775611863
 H       -15.9973929931       -3.2543787418        1.2548499359
 Na       -7.8570575497        5.8820845316       -0.1959903249
