117

 C       -14.7446950501       -5.7501367479        1.7598172138
 C       -13.8705373887       -4.5235046024        1.5543969924
 O       -13.1463837951       -4.1798452131        2.4491989809
 C       -14.1054032512       -3.6715165378        0.2415001640
 C       -13.2984217502       -2.3870262659        0.2495750950
 O       -12.5402406119       -2.1327292726       -0.6717369070
 C       -13.3062780452       -1.5406395207        1.5051251378
 C       -12.7854049729       -0.0628177167        1.3011769124
 C       -11.3759827061        0.2024408575        1.7354229455
 O       -10.8730117217       -0.2248102977        2.7400016338
 C       -10.4494948962        1.1638595711        0.8673427512
 C        -9.5504406003        1.8057864980        1.9374762589
 O        -9.8098618289        2.9465823495        2.2752604721
 C        -8.3050702476        1.1101154198        2.5346736884
 C        -7.1837923828        2.1147588493        2.9051885661
 C        -7.5099536949        3.5025940012        2.3631063829
 O        -7.2763870042        3.8445613008        1.1942298328
 C        -7.9783135177        4.6246834678        3.4075581518
 C        -9.0715369238        5.4960315369        2.7420377129
 O        -8.6754520604        6.1711024581        1.7796759192
 C       -10.4656537017        5.6448691431        3.2574176387
 C       -11.4499563458        6.5140126559        2.3928109769
 C       -12.2187135935        5.6884756102        1.3236588558
 O       -12.5256456172        4.5502987925        1.5653610829
 C       -12.6087350130        6.4275041294       -0.0717164781
 C       -11.3202713691        5.9845441375       -0.9320075060
 O       -10.3054104605        6.5971170843       -0.7335841777
 C       -11.3016622113        4.9646440089       -2.1346039294
 C       -10.4010342344        5.4972744685       -3.2967101134
 C        -9.0463493054        4.6863617708       -3.4078548522
 O        -8.4458659042        4.2350176482       -2.4227081033
 C        -8.3568810898        4.7398824540       -4.8435171186
 C        -7.8021393208        6.1922104221       -4.7781615690
 O        -8.5717014220        7.1218182923       -4.9760315487
 C        -6.2556252582        6.4239284441       -4.5740572692
 C        -6.0085651294        7.9016357716       -4.1075756640
 C        -6.5717684614        7.9298909090       -2.6836230364
 O        -7.4884640431        7.1244385781       -2.4578688057
 C        -5.9231517587        8.8121157801       -1.5236436677
 C        -5.0842562638        7.7619906419       -0.7270549423
 O        -5.6686155334        6.7828868117       -0.2474886697
 C        -3.6057402949        7.8814254614       -0.6644654034
 C        -5.1249329444       10.0085872255       -2.0627762476
 C        -7.1566276942        9.2612432470       -0.7591516064
 C        -7.2424462099        3.7822647230       -5.0172127696
 C        -9.3224907572        4.5435457629       -5.9901676067
 C       -13.9307499966        5.8966940844       -0.6486967161
 C       -12.6471824071        7.9274063559       -0.0218568534
 C        -8.5880408479        3.9990245669        4.7104421076
 C        -6.6723511899        5.4720375258        3.6749337303
 C        -9.5941412283        0.3973238746       -0.0926897770
 C       -11.2582510216        2.1996464438        0.1256321760
 C       -13.7532933241       -4.6112525243       -0.9159604369
 C       -15.6351284011       -3.2052943727        0.2169165224
 H       -15.0026099455       -5.6620066304        2.8502884247
 H       -14.2131444447       -6.7031709249        1.5138315418
 H       -15.6913744370       -5.6498011691        1.1453293785
 H       -12.7055719010       -1.9212694517        2.3905513535
 H       -14.3772925982       -1.4936485181        1.8036707607
 H       -13.4060426713        0.6982750858        2.0156533594
 H       -13.1218818029        0.2437389983        0.3263856321
 H        -7.8750646368        0.2924147320        1.8819041278
 H        -8.5719380300        0.5609661459        3.4540461962
 H        -6.2177464209        1.7301683218        2.5645911752
 H        -7.1114940336        2.2496007164        3.9205493062
 H       -10.3247850541        5.9090807332        4.2874449075
 H       -10.8762608541        4.6653417325        3.1850417818
 H       -10.8638513042        7.3736931250        1.9176992310
 H       -12.2358462658        6.9756847155        3.0917291834
 H       -12.3646707957        4.7251289950       -2.4118345387
 H       -10.9195660681        3.9492693858       -1.8993005446
 H       -10.0911646597        6.5748814146       -3.2962621662
 H       -10.9337615912        5.4089047003       -4.2353436940
 H        -5.6736554132        6.2573983164       -5.4665833165
 H        -5.7983091930        5.5970855639       -3.9196947797
 H        -6.5672334534        8.6556374309       -4.7012113417
 H        -4.9862345310        8.2604386648       -3.9933244522
 H        -3.2006714022        7.5845993833       -1.6136350845
 H        -3.2155219298        7.0602280134        0.0044870514
 H        -3.2054716774        8.8029415546       -0.2934863918
 H        -4.8510832714       10.5819804520       -1.1668587338
 H        -5.8492735744       10.6297765041       -2.5654465134
 H        -4.3533875863        9.7640180535       -2.7551806656
 H        -6.7654856876        9.8189932964        0.0749861013
 H        -7.7562520705        8.5080455978       -0.2946552891
 H        -7.8044790480        9.9416749837       -1.3208866838
 H        -6.5604125715        3.7559258809       -4.1833760553
 H        -6.6414694399        4.1824800797       -5.8226847422
 H        -7.5680860943        2.7494469112       -5.1041539321
 H        -8.8494865095        4.9283632459       -6.9338904073
 H       -10.1843998119        5.2038940369       -5.9729771413
 H        -9.6319481286        3.5443974167       -5.9574023518
 H       -14.0736609478        4.9813462991       -0.0816485203
 H       -13.9034927299        5.7572290271       -1.7539605203
 H       -14.7418524074        6.6390175615       -0.4323196966
 H       -11.6813097870        8.3631943978        0.4170171278
 H       -13.4417578855        8.2744595707        0.7507018183
 H       -13.0018962341        8.3307949036       -0.9481786118
 H        -9.0263083274        4.7905268978        5.3840468487
 H        -7.8844944779        3.4413806991        5.3686378370
 H        -9.4592236102        3.4781350839        4.5782479364
 H        -6.7203314187        5.9215756262        4.6456808243
 H        -6.5854549087        6.2356883382        2.8802808333
 H        -5.8414175174        4.8657689816        3.8131851447
 H        -9.1084684690       -0.4653095780        0.4292316178
 H        -8.8026732832        1.0601839062       -0.5082489662
 H       -10.2181801087        0.0007307120       -0.8988443974
 H       -10.4564780205        2.8934862860       -0.1912344389
 H       -11.9076310231        2.7630522879        0.7710651760
 H       -11.9217080401        1.8368396677       -0.6025831493
 H       -13.8860199502       -4.2272162918       -1.9320741454
 H       -14.2510401010       -5.5456205514       -0.7989498795
 H       -12.7092307576       -4.6397245054       -0.8058776582
 H       -16.2939315004       -3.9055200257       -0.3167607971
 H       -15.7329673446       -2.1754360201       -0.1668218268
 H       -16.0086332312       -3.1372029943        1.2024092098
 Na       -8.0056157423        5.5647447842       -0.4761611944
