117

 C       -14.2262681841       -6.2020726139        1.5073670856
 C       -13.7339177256       -4.7495291782        1.5355335117
 O       -13.1548690387       -4.2980722667        2.4913478942
 C       -14.1031517722       -3.7657527637        0.2719165508
 C       -13.2381426743       -2.4898415547        0.3312994804
 O       -12.4576764522       -2.1707363517       -0.5462744835
 C       -13.5106441424       -1.4911204035        1.5154724955
 C       -12.8805662840       -0.1725743653        1.1431548986
 C       -11.3891831912       -0.1158393408        1.5545001979
 O       -10.8299604790       -0.8195009466        2.3450293713
 C       -10.5370638524        0.9122211573        0.7240456636
 C        -9.6942688314        1.7575470239        1.7766376486
 O        -9.8772612635        2.9595313870        1.8590622205
 C        -8.6047011175        1.1647637248        2.7591149637
 C        -7.3424957816        2.0201338279        2.6862441690
 C        -7.5938589027        3.4794693531        2.2374713786
 O        -7.4159501527        3.8520192396        1.0691927877
 C        -7.9662438610        4.5728077841        3.3062329124
 C        -8.9326218338        5.5708696902        2.6634704168
 O        -8.3705418057        6.3096961536        1.8648945093
 C       -10.3234066798        5.7583242416        3.2333163361
 C       -11.2673520593        6.6401708769        2.3517517356
 C       -12.2337731868        5.8098437355        1.4343135573
 O       -12.7387676801        4.8095444183        1.8017162031
 C       -12.5760841172        6.4581368673       -0.0739966153
 C       -11.2716077670        6.0787978162       -0.8817292829
 O       -10.1555120737        6.5114852900       -0.5216059516
 C       -11.4101577299        5.2039366939       -2.0760225358
 C       -10.5245174408        5.6658464550       -3.2672708286
 C        -9.1799625264        5.0120319522       -3.3006643265
 O        -8.7244331507        4.4716229959       -2.2788916913
 C        -8.4180919812        4.8211132177       -4.6460293351
 C        -7.7224728115        6.2691382008       -4.8900923774
 O        -8.4343533568        7.1652329335       -5.3214726973
 C        -6.1679622713        6.5802877468       -4.7812790042
 C        -5.8841645761        7.8623269053       -3.8784566014
 C        -6.6703276919        7.9346521659       -2.5991393282
 O        -7.7171330093        7.2685048649       -2.4467984065
 C        -6.0305613188        8.7767746111       -1.4754523139
 C        -5.0929770875        7.8122512034       -0.6298003077
 O        -5.5910219337        6.7991642522       -0.1477715399
 C        -3.5497708997        8.1252777710       -0.5580925757
 C        -5.3044189413       10.0627276772       -2.0884379376
 C        -7.0310081006        9.3262303036       -0.3874702075
 C        -7.4048560173        3.7657194601       -4.6173778321
 C        -9.3397439041        4.6582878396       -5.8408941193
 C       -13.8350767509        5.7611373972       -0.5360407728
 C       -12.7221538933        7.9229069724        0.0495387404
 C        -8.5555575755        4.0551933185        4.6169545116
 C        -6.6072275766        5.3795115846        3.5853186671
 C        -9.6825701871        0.0603338629       -0.1927520787
 C       -11.2970180685        1.9726284157       -0.0924333852
 C       -13.8140964239       -4.4709511648       -1.1031783774
 C       -15.5500566042       -3.4015036488        0.3816202150
 H       -14.4315631087       -6.5046087075        2.5073921774
 H       -13.4609571678       -6.8480116951        1.0856634061
 H       -15.0520705945       -6.1994395337        0.8557503130
 H       -13.0596104582       -1.8275847977        2.4601071516
 H       -14.5335811574       -1.3733823935        1.7521674683
 H       -13.4990280742        0.7383921237        1.4765354379
 H       -13.0453502843       -0.1399313561        0.1250729145
 H        -8.3769223279        0.1346366173        2.5017899905
 H        -9.0243530210        1.1665949340        3.7693708571
 H        -6.6677528838        1.6631966539        1.8383029243
 H        -6.7873847753        2.0144163610        3.6446689593
 H       -10.1625006012        6.2298135607        4.2560253954
 H       -10.6722250638        4.6981040597        3.2922882619
 H       -10.5396289191        7.1377027300        1.7164217775
 H       -11.7826392877        7.3474324005        2.9380267129
 H       -12.3997823592        5.0748560353       -2.4608943973
 H       -11.2146958784        4.1940732747       -1.7064111769
 H       -10.3826543989        6.7488573121       -3.3298155210
 H       -11.0976345872        5.4036887306       -4.2069439148
 H        -5.8091678770        6.7459673050       -5.7430815502
 H        -5.6264231902        5.6887331933       -4.3257353477
 H        -6.1913385040        8.7817422439       -4.3849615355
 H        -4.8516664402        7.9586080169       -3.5517245837
 H        -3.1654803735        8.1988528336       -1.6046920101
 H        -2.9346314206        7.3797007297       -0.0651790200
 H        -3.3788401382        9.0737446706       -0.0855978387
 H        -4.9514939941       10.6172528950       -1.1969292411
 H        -6.0821813709       10.6079277433       -2.6421597490
 H        -4.6072081183        9.7210676842       -2.8693338795
 H        -6.6793851468        9.6658552269        0.5917120328
 H        -7.8927173796        8.6324976978       -0.3070383018
 H        -7.5128510751       10.2317473026       -0.8136631853
 H        -6.7594505867        3.9415193364       -3.7572993752
 H        -6.7327832741        3.7427210008       -5.5066080210
 H        -7.9066622218        2.7953907752       -4.5315861694
 H        -8.8436765350        4.1594609620       -6.6981270769
 H        -9.6566810139        5.6143078785       -6.2262499256
 H       -10.1684234627        4.0832112768       -5.4749270602
 H       -13.5786393139        4.7369635333       -0.8139333587
 H       -14.2154348467        6.3584594255       -1.3593536302
 H       -14.5397883323        5.6076956827        0.2673500242
 H       -11.7899727145        8.4325775142        0.1230835743
 H       -13.2379359156        8.1856971081        0.9494389801
 H       -13.2240183830        8.2666703704       -0.7947606731
 H        -8.8559412153        4.7259665573        5.4464470072
 H        -7.8706670418        3.3814413427        5.1122195503
 H        -9.4482804318        3.5166506981        4.4571280824
 H        -6.8790986164        6.3688783496        3.9877728382
 H        -6.1653577914        5.5554512923        2.5785808715
 H        -5.8905456489        4.8784802790        4.2766529910
 H        -8.9392346876       -0.4179783894        0.4912582174
 H        -9.2246502991        0.6420765365       -0.9215882917
 H       -10.1933506484       -0.7514396602       -0.6747764261
 H       -10.6050555751        2.7548431268       -0.4633720670
 H       -12.0928467938        2.4535195566        0.5434544592
 H       -11.7927607241        1.4780605360       -0.9545191387
 H       -14.1026061305       -3.7109424044       -1.8704060213
 H       -14.5525639538       -5.3010368597       -1.2272545058
 H       -12.7647649345       -4.6951197064       -1.2395508032
 H       -16.2165631714       -4.1230246206       -0.1141748846
 H       -15.7895207864       -2.4573664792       -0.0979417883
 H       -15.8290573923       -3.3232574129        1.4507756695
 Na       -7.7434074478        5.8285534833       -0.3144030309
