117

 C       -12.9964738915        5.4324315453        1.5038380845
 C       -11.8945492279        4.3085732298        1.6414581266
 O       -11.8901376861        3.3941011080        0.8319667554
 C       -11.0837702601        4.2217892260        3.0036923067
 C       -11.6215888489        2.8355054112        3.5378103606
 O       -11.1692016103        1.7465240373        3.1794649161
 C       -12.7291588596        2.8571621711        4.6223101498
 C       -13.5052670740        1.5820965801        4.4009707528
 C       -14.2924814491        1.7890625264        3.0670023081
 O       -14.3681203890        2.7660057835        2.4272197665
 C       -14.8142978724        0.3655293331        2.4038592905
 C       -13.6334221432       -0.2109218635        1.3919979405
 O       -12.4951232243        0.2296026664        1.5381638585
 C       -13.8987117969       -1.1291040796        0.2595324424
 C       -12.7748958079       -2.0291559822       -0.2007816255
 C       -11.5111301649       -1.5242554944       -0.9734233180
 O       -11.2974625133       -0.3668233577       -1.2365641946
 C       -10.3789513282       -2.6578663694       -1.0034405261
 C        -9.5748606777       -2.5258416045        0.3354638008
 O       -10.1260550801       -2.7980293734        1.3453601471
 C        -8.1374222729       -2.2186743524        0.1162614213
 C        -7.5189917923       -1.4517463461        1.3399925075
 C        -7.8126459045       -0.1046195817        1.0325693975
 O        -8.9978550978        0.1381753941        0.7527993856
 C        -6.7036600111        1.0342866097        0.8724086640
 C        -7.3867224441        2.3151509381        0.0921535514
 O        -8.5350434772        2.6777312296        0.1678366203
 C        -6.2662790697        3.3629755736       -0.4023824200
 C        -7.0919316558        4.3683299108       -1.3208985216
 C        -6.3825980952        5.8370075801       -1.3265612706
 O        -5.7252195659        6.1969060301       -0.4162659615
 C        -6.7089409364        6.7189893700       -2.4857213517
 C        -8.1733683741        7.4353204894       -1.8653633162
 O        -8.9032014162        6.8212356416       -1.0874976803
 C        -8.8090625899        8.7223417446       -2.3511519004
 C        -7.9980233261        9.8661534575       -2.9234276458
 C        -8.9775083986       10.8962751134       -3.4953915324
 O        -9.7923686785       11.2863959853       -2.6916250052
 C        -8.5774884795       11.6084757647       -4.9137378140
 C        -7.5942027122       10.7724794704       -5.7832300482
 O        -7.4591343508        9.6200322028       -5.5412608907
 C        -6.8886415796       11.3794192772       -7.0044938235
 C        -9.8182533015       11.8724631719       -5.7326168706
 C        -7.9360651580       13.0363316401       -4.4029525866
 C        -5.4577402762        7.6744487840       -2.5347604119
 C        -6.9216817241        6.1372208320       -3.9402337983
 C        -6.2230722231        1.5016888896        2.3275645049
 C        -5.5540333999        0.5337718435        0.0498592618
 C       -10.9905218098       -4.0583980536       -1.0726050323
 C        -9.5853974495       -2.3329769086       -2.3125087603
 C       -15.3806390295       -0.6796055608        3.4012281509
 C       -15.9583145494        0.7788299489        1.4119735123
 C        -9.6335723739        4.1554411748        2.6386187808
 C       -11.4635890315        5.3551625921        3.9526059408
 H       -14.0057280020        5.0352242665        1.5514381531
 H       -12.9840426958        5.8114711446        0.5141493399
 H       -12.7994573118        6.1838718867        2.2125602438
 H       -13.3561459420        3.7174196591        4.3788391131
 H       -12.3192534355        3.1438118326        5.6274070167
 H       -14.0049405312        1.2363683203        5.3798909203
 H       -12.8138182209        0.8319430773        4.0359711302
 H       -14.0481903626       -0.3287159543       -0.4969391793
 H       -14.9026606284       -1.6547685468        0.2624451914
 H       -13.2179209967       -2.7802310385       -0.7712549669
 H       -12.2998287927       -2.5169713566        0.6465540070
 H        -8.0422273876       -1.5254166909       -0.6285426359
 H        -7.5663217525       -3.1390507612       -0.0709446627
 H        -6.3955069402       -1.6946124561        1.3361265269
 H        -8.0177930081       -1.8602279897        2.2589797470
 H        -5.6365657565        2.7890206819       -0.9718000770
 H        -5.8618471245        3.8877842577        0.4555486600
 H        -8.0073514889        4.6411778319       -0.7649785572
 H        -7.3297980449        3.9181767488       -2.3115460732
 H        -9.4565249377        9.0736191871       -1.5563951916
 H        -9.3783253528        8.2550295801       -3.1051422890
 H        -7.2493863114        9.5862812739       -3.6492940528
 H        -7.4481147761       10.3277744735       -2.0604076438
 H        -6.0825456392       12.0297757477       -6.6560371967
 H        -7.6175979389       11.8342181555       -7.5582261391
 H        -6.5923417801       10.4761320405       -7.6295175749
 H        -9.4423915322       12.5497392423       -6.6032607548
 H       -10.5627482897       12.4255914154       -5.1502357609
 H       -10.0915255480       10.9268422170       -6.3308951486
 H        -8.8180829444       13.6365146526       -4.4694976498
 H        -7.2537747308       13.1848888647       -5.2308646173
 H        -7.7749019124       12.8777703175       -3.3607803805
 H        -5.4023199967        8.3980989088       -3.3041337306
 H        -4.6759990016        6.8845066484       -2.4233988385
 H        -5.1547802134        8.2536703438       -1.7386525390
 H        -7.4663325058        6.9032032299       -4.5521388454
 H        -7.6600072858        5.2934054630       -3.9048439159
 H        -6.0559162258        5.7326928048       -4.4315102705
 H        -6.7123310645        0.7331230669        3.0339304109
 H        -6.7258617477        2.4676346997        2.5392400005
 H        -5.1242156413        1.5368546749        2.4169363980
 H        -4.8437419131        1.3257808529        0.2906883012
 H        -5.8638509889        0.5652583751       -1.0172763035
 H        -5.1206797951       -0.4523989913        0.2886573335
 H       -11.9466675697       -3.9380244298       -1.5905389416
 H       -11.3907366417       -4.2261622136       -0.0307228262
 H       -10.3458175568       -4.9129147831       -1.3172646553
 H       -10.2222366492       -2.1200275884       -3.1705626587
 H        -8.8248477094       -3.0769253151       -2.6291912163
 H        -9.1090626789       -1.3416091967       -2.0820099888
 H       -14.5582601665       -1.0929990294        3.9774949908
 H       -15.9947789773       -1.3988903346        2.8758326634
 H       -16.0791457434       -0.1353744811        4.0670637822
 H       -16.9212980523        0.9533046508        1.8778726266
 H       -15.8744227914       -0.0599920204        0.7580213939
 H       -15.5642026390        1.7766570287        1.0002123642
 H        -9.3766927746        3.1239090750        2.5034788647
 H        -8.9898936866        4.3348379250        3.5075904838
 H        -9.2171922130        4.8141043794        1.7866900947
 H       -10.7925021944        5.2068498227        4.7552484196
 H       -12.4831575337        5.1094531049        4.3722687927
 H       -11.3949145629        6.3786271051        3.5982861139
 Na      -10.8209482759        1.3583017946        0.9333366152
