117

 C       -13.1123739667       -6.4922882730        1.0320863420
 C       -13.5295106814       -5.0489013145        1.3197085224
 O       -13.4497390450       -4.6388148733        2.4689316162
 C       -14.0149418743       -4.0743409457        0.2308579576
 C       -13.4537240961       -2.6357286848        0.4333847776
 O       -12.5747160930       -2.2653335774       -0.3211590551
 C       -13.7061137444       -1.7365442130        1.6214402890
 C       -12.9347596003       -0.4201424523        1.4109053176
 C       -11.4189063964       -0.4949755451        1.3425353800
 O       -10.7432130153       -1.2281447005        2.0619794874
 C       -10.6214877151        0.5493841759        0.4124690238
 C       -10.0584732034        1.7509961391        1.2579947077
 O       -10.4950592767        2.8888657763        1.2351924236
 C        -8.9733048397        1.3266722522        2.3006731332
 C        -7.6703295059        2.0352582177        2.0196654350
 C        -7.6734847774        3.5451844414        1.8916639884
 O        -7.4028254788        4.0374153872        0.8172711304
 C        -7.7730574532        4.5287192409        3.1075341124
 C        -8.6919611359        5.8530983141        2.7728408205
 O        -8.1478177894        6.7239564110        2.1232795425
 C       -10.0909452728        5.9593254681        3.3083659095
 C       -10.9515174140        6.8858693225        2.4708353428
 C       -12.1626974246        6.1095003976        1.6874665722
 O       -12.7873598039        5.2319195415        2.3022932355
 C       -12.5660610434        6.4725491673        0.2721067893
 C       -11.2880073417        6.4444388745       -0.7730676335
 O       -10.2254154637        6.6916071731       -0.3076945245
 C       -11.4746824878        6.0219063497       -2.2981023973
 C       -10.1997498251        6.3286085743       -3.1778599542
 C        -9.0726830425        5.2466784537       -3.0391468344
 O        -8.8601374101        4.6021413586       -2.0491019335
 C        -8.3137301980        4.9626290846       -4.4534349910
 C        -7.6089375565        6.2323198341       -4.9054240150
 O        -8.3196468308        6.9954614850       -5.5301520534
 C        -6.1935776026        6.6845693877       -4.5879242981
 C        -6.1175939106        8.1290456338       -3.9456349098
 C        -6.6521202647        7.9427501395       -2.5019826241
 O        -7.6252358020        7.2759799406       -2.2808029005
 C        -6.0574493342        8.8817873606       -1.2685487105
 C        -5.0941519233        7.8815470582       -0.4861383955
 O        -5.5386486478        6.8238746241       -0.1132743951
 C        -3.6687036369        8.2564770371       -0.1093433367
 C        -5.3621228158       10.1869961274       -1.7345026258
 C        -7.1339141277        9.2037108358       -0.2773779429
 C        -7.3625007591        3.6830456338       -4.3228221961
 C        -9.3225875977        4.5856446595       -5.6529720345
 C       -13.8168654882        5.6797286716       -0.2995220008
 C       -12.9932724049        7.9941771728        0.1794555480
 C        -8.2302763478        3.8811046247        4.3953057042
 C        -6.3290832436        5.0632945608        3.2550940053
 C        -9.4784018990       -0.3830282436       -0.1242521704
 C       -11.5106756195        1.1475753447       -0.7257768028
 C       -13.8200752148       -4.4549529510       -1.2785596977
 C       -15.6074321082       -3.9602113209        0.6110493655
 H       -12.6701622679       -6.8545530354        1.9274513174
 H       -12.3584271081       -6.4973612356        0.3295266095
 H       -13.9846123226       -7.0910109096        0.7244895652
 H       -13.2722935884       -2.2124225111        2.4792408135
 H       -14.7232146550       -1.6370585649        1.9525680900
 H       -13.3108303698        0.3036846579        2.1761277826
 H       -13.4046063772       -0.0040018460        0.4211280624
 H        -8.7676913465        0.2553408645        2.2615768513
 H        -9.4841725253        1.5779921837        3.2200260683
 H        -7.2884624626        1.7917259967        0.9807056020
 H        -6.8911337863        1.7001069174        2.7528295369
 H        -9.9791760427        6.4405425353        4.3269100758
 H       -10.6831622742        5.0230668319        3.3385048860
 H       -10.3782038594        7.4472400903        1.7902405410
 H       -11.4645920182        7.5868401197        3.1164038519
 H       -12.3557707489        6.5785470637       -2.6337850163
 H       -11.7472711401        5.0095021720       -2.5238003879
 H        -9.7340024884        7.2768715326       -2.7819241420
 H       -10.4445457299        6.3822100572       -4.2258229877
 H        -5.7916222369        6.9013772355       -5.5818247632
 H        -5.6762045023        5.9843892103       -3.9989000163
 H        -6.8677768945        8.6954779059       -4.5058621906
 H        -5.1076861348        8.4741566108       -3.9486055506
 H        -3.0884719940        8.5377969994       -0.9385330040
 H        -3.2117202062        7.5013395649        0.5550742909
 H        -3.7416157639        9.2411579125        0.3785902539
 H        -4.9201741190       10.5842249544       -0.8083629083
 H        -6.2244985641       10.7558337647       -2.1323472117
 H        -4.5140107070        9.8997762049       -2.3303256597
 H        -6.8935038465       10.0842512450        0.3367904511
 H        -7.4287459219        8.3940699359        0.3589101431
 H        -8.0615301451        9.4579001214       -0.8157970296
 H        -6.6876181575        3.7383102221       -3.4766026734
 H        -6.8341155277        3.6111678346       -5.2525314802
 H        -7.9209053424        2.7477648424       -4.2942728188
 H        -8.8111607811        4.0362492572       -6.4398645102
 H        -9.8512611046        5.4895605248       -5.9097446135
 H       -10.0187209687        3.8749782967       -5.2928057637
 H       -13.6242693013        4.6281008602       -0.4901532258
 H       -14.1897008348        6.1498842944       -1.2371169405
 H       -14.6544546278        5.7659930897        0.4029156639
 H       -12.1427078227        8.6049165104        0.3187403242
 H       -13.6927521584        8.1696948606        0.9473416816
 H       -13.4139717015        8.2965516012       -0.7464592581
 H        -8.1006586145        4.4725903830        5.2664599034
 H        -7.6949784973        2.9581372291        4.5818890720
 H        -9.2335787908        3.4418440647        4.4266010959
 H        -6.5466107700        5.7336355046        4.0989502499
 H        -5.9671358664        5.6496279757        2.3856702057
 H        -5.5703428373        4.3138678871        3.3743688738
 H        -8.9969681587       -0.9700660981        0.5789542088
 H        -8.7532617628        0.2903466572       -0.6537101599
 H        -9.8548943350       -1.0039683870       -0.9090132422
 H       -10.8906613367        1.6271873731       -1.5035261514
 H       -12.1201566200        1.9039133134       -0.3180588570
 H       -11.9489548454        0.3532721844       -1.3229874961
 H       -14.4673849226       -3.7524772571       -1.8256568664
 H       -14.0686049773       -5.4922782560       -1.4336563403
 H       -12.7202218786       -4.3903768919       -1.4590309336
 H       -16.1745129529       -4.8400987799        0.2893163231
 H       -16.0844359247       -3.1278014825        0.0338254543
 H       -15.8319087069       -3.8479959040        1.6405232286
 Na       -7.9384258290        6.1353387864       -0.2614790438
