117

 C       -15.3048493804       -5.2710225523        2.0914925407
 C       -14.1800575100       -4.3456528049        1.6614491952
 O       -13.1640796902       -4.2417475821        2.3569265637
 C       -14.2407889254       -3.5814367108        0.3541100133
 C       -13.2432104007       -2.3192298833        0.3459917089
 O       -12.6434660841       -2.0018222014       -0.6647002275
 C       -13.3531779240       -1.5463375917        1.6264223869
 C       -12.8470729745       -0.0406507487        1.3529791332
 C       -11.4329177449        0.1906114503        1.9063980430
 O       -11.0644503615       -0.2292576515        2.9628911548
 C       -10.3749997445        0.9407132387        0.9924438222
 C        -9.2739420651        1.7346023223        1.8537482565
 O        -9.6267979925        2.7206396448        2.4976077405
 C        -7.7834414475        1.3874195301        1.9884353903
 C        -7.1501319426        2.3840741987        2.9168126368
 C        -7.5363176094        3.8182643575        2.4389616486
 O        -7.2165498391        4.1322462030        1.2951665272
 C        -8.0099331278        4.9318456716        3.5009896159
 C        -9.2282478362        5.6793985513        2.7825376156
 O        -8.9375112506        6.2346886643        1.7481562688
 C       -10.6091504399        5.7452255116        3.3671028612
 C       -11.5282818438        6.5899981726        2.4106557834
 C       -12.1291820766        5.7190406987        1.2907632543
 O       -12.5977569894        4.6674601921        1.5317371231
 C       -12.3303447587        6.3673217951       -0.2604459113
 C       -11.0596955196        6.1161350812       -0.9884654095
 O       -10.0738833116        6.7927467241       -0.7812031817
 C       -10.9176053933        4.9996865337       -2.0063786905
 C       -10.3159709418        5.3454990393       -3.3562507474
 C        -9.0568726631        4.6097084329       -3.6007655453
 O        -8.5106354434        4.1087221740       -2.6010534224
 C        -8.2688300624        4.6690238129       -4.8999323201
 C        -7.8400848203        6.1829479527       -5.1624821796
 O        -8.7263254766        7.0371808787       -5.3019939668
 C        -6.3629292035        6.6093267155       -5.1424958800
 C        -6.1838059763        7.8572757179       -4.1908925919
 C        -6.6770401147        7.6521714113       -2.7003652329
 O        -7.5145191978        6.7636475195       -2.5657684221
 C        -5.9908942194        8.3869939360       -1.5667012888
 C        -5.2315123612        7.4644963584       -0.5563226044
 O        -5.7830609195        6.6848288653        0.1792877260
 C        -3.6984115632        7.6761645216       -0.4130187882
 C        -5.1044971624        9.5929818852       -2.0944073583
 C        -7.1027328316        9.0368411695       -0.7542347316
 C        -7.1165833522        3.5784785266       -4.9301896178
 C        -9.2908552002        4.4279063612       -6.0615443357
 C       -13.6997531832        5.7813330332       -0.8865988956
 C       -12.5590639782        7.8831120953       -0.0179370094
 C        -8.4162903592        4.3926028906        4.8089622890
 C        -6.9248095843        6.0005987998        3.5937183166
 C        -9.8126476190       -0.1511994356        0.0133436292
 C       -11.0452451786        2.0823839516        0.2335214180
 C       -13.5777716275       -4.5899406951       -0.6906607634
 C       -15.6450408724       -3.0654837024       -0.0298322660
 H       -15.2808208915       -5.3852528431        3.1689453910
 H       -15.2223269052       -6.2071336586        1.4958325270
 H       -16.2525396702       -4.8357822237        1.9461271756
 H       -12.6552008172       -2.0369081635        2.3482900514
 H       -14.3559377585       -1.4511036691        2.0132682554
 H       -13.6697858517        0.5649051322        1.9431146816
 H       -13.0503644256        0.1599206308        0.3389191772
 H        -7.2853785782        1.4635765432        0.9900645168
 H        -7.6004765274        0.3353570376        2.2523276330
 H        -6.0608822408        2.3168929867        2.9124384264
 H        -7.4300546956        2.2167172672        3.9061796235
 H       -10.5052303006        6.1479870779        4.3625562953
 H       -10.9271367090        4.7356813101        3.5028330511
 H       -10.8740345410        7.4143120086        2.0196332432
 H       -12.2714048724        7.0837830643        3.0698379701
 H       -11.8957750610        4.5056360742       -2.1205737671
 H       -10.2476919336        4.2683241741       -1.5014899117
 H       -10.0780689098        6.4056652858       -3.4006461400
 H       -10.9858749628        5.2276596253       -4.1831099820
 H        -5.9286164747        6.7782197760       -6.1120979922
 H        -5.7297962150        5.6775047895       -4.8214027881
 H        -6.6668274182        8.8017856884       -4.5305963420
 H        -5.1525263783        8.2207177711       -4.1034128529
 H        -3.1267458691        7.5400117373       -1.3541130579
 H        -3.2424366509        6.9757645083        0.2456744986
 H        -3.4876532583        8.6529645653        0.0293556205
 H        -4.7628779236       10.3679565934       -1.4157427715
 H        -5.7109877994       10.0087589974       -2.8695473873
 H        -4.2068116814        9.1488413372       -2.5103095751
 H        -6.7925520851        9.4187291849        0.1789741088
 H        -7.8037908449        8.2836524326       -0.4531612948
 H        -7.6559021261        9.7367753556       -1.3553619358
 H        -6.4071507918        3.6500254325       -4.1268105318
 H        -6.6026821027        3.5391489703       -5.9096777858
 H        -7.5760794540        2.5952481035       -4.7925428326
 H        -8.8232470522        3.9400989844       -6.9839776535
 H        -9.7946213519        5.3838134555       -6.3187997299
 H       -10.1048238991        3.7492449510       -5.7736980601
 H       -13.4324132848        4.8193220140       -1.2392805186
 H       -13.9794450715        6.3714347785       -1.7469065540
 H       -14.4524690994        5.8704050171       -0.1390584213
 H       -11.6175284953        8.4461639353        0.0707168937
 H       -13.2764806791        8.0731251074        0.8024520368
 H       -13.0414986082        8.3333570015       -0.8599099402
 H        -9.0328130475        5.1641918735        5.3376545239
 H        -7.6384022656        4.0685608333        5.4903463688
 H        -8.9994481067        3.5094860699        4.7076944037
 H        -7.2848636589        6.9953905590        3.9059974338
 H        -6.3544471029        6.0737706295        2.6277650955
 H        -6.2819952753        5.6878416650        4.4173871173
 H        -8.8590313759       -0.5753263247        0.4251535358
 H        -9.5451929907        0.2658724185       -0.9207065818
 H       -10.6210825534       -0.8487265748       -0.0910449944
 H       -10.2781240051        2.6395223680       -0.2831149337
 H       -11.6104627987        2.7451370820        0.8945319197
 H       -11.7370021802        1.7295351665       -0.4712113465
 H       -13.3579308274       -3.9810079169       -1.6000241569
 H       -14.4008518141       -5.2793803625       -0.9435562051
 H       -12.6873958867       -5.1299560577       -0.3976636927
 H       -16.3907990732       -3.8352405720        0.2029081438
 H       -15.6357705906       -2.8972250100       -1.1102371997
 H       -15.9086815111       -2.1482318761        0.4673989771
 Na       -7.9182530399        5.6111858852       -0.3421390127
