117

 C       -15.9004502607       -4.4818723357        2.2612838070
 C       -14.5069481338       -4.1535156928        1.8521394911
 O       -13.5622678558       -4.3853823770        2.6244146746
 C       -14.2081687465       -3.4470261697        0.4923360660
 C       -13.2715637900       -2.1932620557        0.6763414833
 O       -12.4221502595       -1.8066584149       -0.0955165922
 C       -13.6207678716       -1.3198427440        1.9391233563
 C       -12.8858177652        0.0809830327        1.8532701000
 C       -11.3543589690        0.0000166320        2.1349074301
 O       -10.9236250274       -0.6581492016        3.0753090233
 C       -10.2794122862        0.5117606217        1.0708566566
 C        -9.3787214857        1.5873828891        1.7541664225
 O        -9.9078913902        2.6387653432        2.1243083638
 C        -7.9312711765        1.3556191485        2.1476057947
 C        -7.3521764223        2.5965830694        2.8504119981
 C        -7.8642826710        3.8936377211        2.1457757760
 O        -7.9156594628        3.9570131589        0.9413850853
 C        -8.0869890861        5.1361519637        3.0450261347
 C        -9.3224941771        5.9193344737        2.5097488871
 O        -9.1101878634        6.6771846094        1.6002580164
 C       -10.6424892150        5.8389788466        3.2229526341
 C       -11.7092546945        6.5860350261        2.4124272635
 C       -12.1115804604        5.8656628305        1.0450985501
 O       -12.2911374342        4.6855821143        1.0604732052
 C       -12.3686570937        6.7054292553       -0.2653979467
 C       -11.0559105406        6.4904881688       -1.1054252980
 O       -10.1314840292        7.2200599725       -1.0407437002
 C       -10.8012652165        5.1796024753       -1.9036938145
 C       -10.0965534923        5.3117591046       -3.2584324674
 C        -8.8541566750        4.4791810876       -3.3186681861
 O        -8.3852146956        3.8528964354       -2.3540633613
 C        -8.1684083937        4.4734426064       -4.7029658392
 C        -7.8314012061        5.9898632279       -5.0145994449
 O        -8.7166480663        6.8240760585       -5.1667629737
 C        -6.3081991893        6.4593443927       -5.1476267407
 C        -6.3022135456        7.7998013240       -4.3591262118
 C        -6.3216039179        7.4441828950       -2.8391656649
 O        -6.8881725115        6.4031730231       -2.5767398009
 C        -5.8030848873        8.3308659148       -1.7505748790
 C        -5.2017412408        7.3960662607       -0.5641035288
 O        -5.8375124136        6.5400936117       -0.0401133962
 C        -3.6326805159        7.5286495713       -0.3540911213
 C        -4.8968995172        9.4932581903       -2.1875080703
 C        -7.0959014862        8.9638502481       -1.0242470566
 C        -6.9729372032        3.5630367263       -4.5625586171
 C        -9.1263150560        3.8989545755       -5.7104955697
 C       -13.6430707653        6.1329656775       -0.9491786964
 C       -12.6543616129        8.1745483836        0.1190106514
 C        -8.3058036300        4.8754946973        4.5380320297
 C        -6.7814346894        6.0547415927        2.9443695395
 C        -9.3869389256       -0.7256391593        0.8424666397
 C       -10.7735902020        1.1656683346       -0.2321331461
 C       -13.5768506535       -4.5818218407       -0.3298120520
 C       -15.4540627301       -2.8190681170       -0.1925792121
 H       -15.9918382559       -5.3560524753        2.9788150747
 H       -16.6046871376       -4.7275600034        1.3791574946
 H       -16.3443238061       -3.6277772956        2.7799147919
 H       -13.2266993616       -1.9164648936        2.7596863799
 H       -14.6958707823       -1.0673607684        2.1488847254
 H       -13.3502593291        0.7115049638        2.5982496809
 H       -13.1778197636        0.3959622084        0.9418337070
 H        -7.2625255833        1.1519259819        1.3095065739
 H        -7.8746450680        0.5340700519        2.8251942949
 H        -6.2028595694        2.5964654029        2.8151360982
 H        -7.5964664460        2.6006076198        3.8997715236
 H       -10.5315259810        6.0960030683        4.3029211991
 H       -10.9143623416        4.7598384592        3.3309797018
 H       -11.3966848095        7.6155944495        2.3736127621
 H       -12.5574280436        6.6081678840        3.0843892425
 H       -11.7769317218        4.6584056863       -1.9392481810
 H       -10.1267013824        4.6716619871       -1.2194136152
 H        -9.8183742624        6.4006816251       -3.4971336830
 H       -10.8188169620        4.9896883347       -4.0062341308
 H        -6.0736453324        6.7234644130       -6.1262792693
 H        -5.5881771613        5.7234759113       -4.6743071621
 H        -7.2292822412        8.3374886219       -4.5005597953
 H        -5.5059264404        8.4389813763       -4.7268616443
 H        -3.0378666327        7.3377485377       -1.2761592622
 H        -3.3740956376        6.8388651426        0.3878066408
 H        -3.2446434784        8.5383869055       -0.1027602649
 H        -4.5035572930       10.0597431304       -1.3300770697
 H        -5.3321591722       10.2746501419       -2.8194047669
 H        -4.0929958695        9.1409234757       -2.8310486696
 H        -6.9143966856        9.9887306556       -0.7815225377
 H        -7.4881329679        8.4338099459       -0.1831011157
 H        -7.9387270461        9.0413565527       -1.6964758524
 H        -6.3209905560        3.9320827116       -3.7768222065
 H        -6.4661581551        3.2488886960       -5.4998726664
 H        -7.5041866849        2.6554258788       -4.2135351385
 H        -8.6104305751        3.4285391337       -6.5959930923
 H        -9.8659643135        4.6067379125       -6.0960507394
 H        -9.6889160472        3.0843909673       -5.3366056140
 H       -13.5166722504        5.0504421158       -0.8663290483
 H       -13.6825607801        6.6264632305       -1.9284714013
 H       -14.5424322521        6.2897972851       -0.3372011632
 H       -11.7276445855        8.7706654669        0.3495825379
 H       -13.3206552984        8.2941110775        1.0444517071
 H       -13.1226584090        8.6035073231       -0.7868818485
 H        -8.1234613235        5.8089523626        5.1528398929
 H        -7.5499340615        4.1848423359        4.9548476894
 H        -9.3003964782        4.4744534030        4.7204085257
 H        -7.1129587987        7.0506796340        3.2023800178
 H        -6.2582761843        6.0826615418        1.9767035404
 H        -6.0643957675        5.6446939111        3.5929968869
 H        -8.9158811415       -1.0051119885        1.8347237110
 H        -8.7613556840       -0.4911055544       -0.0069839551
 H       -10.0227779711       -1.5706440438        0.5886004491
 H       -10.0180236146        1.0204215351       -1.0550639453
 H       -10.8660416349        2.2845569267       -0.2426580409
 H       -11.6542193053        0.7059321242       -0.5991873492
 H       -12.9091285446       -4.1888725956       -1.1017193280
 H       -14.2922674709       -5.1684121170       -0.8808887689
 H       -13.0915888912       -5.2725540802        0.3073271920
 H       -16.2176549280       -3.6055146999       -0.2946596471
 H       -15.2024113786       -2.4063586141       -1.1921633767
 H       -15.8372960203       -2.0942349986        0.4669204782
 Na       -8.1422200004        5.7568954821       -0.6151990871
