117

 C       -15.4088387895       -5.1570950168        2.1670520088
 C       -14.2215932800       -4.3203796321        1.7431527244
 O       -13.2180015044       -4.3014326800        2.4270784572
 C       -14.2283350559       -3.5993078035        0.2666982313
 C       -13.2765854716       -2.3158853367        0.3493378345
 O       -12.6355437676       -1.9972764830       -0.6214598222
 C       -13.3637317116       -1.4720017757        1.6502145758
 C       -12.8222521254        0.0771551286        1.5309680542
 C       -11.4097643029        0.2021525097        1.9985176249
 O       -11.0938918978       -0.3182561829        3.0802780535
 C       -10.3161102536        0.9273767680        1.0208907920
 C        -9.2567900898        1.6925408232        1.8470740865
 O        -9.7102677883        2.6402673328        2.4745293552
 C        -7.7381991863        1.4708761694        1.8178332195
 C        -7.1021846973        2.3731861589        2.9111706087
 C        -7.4512453992        3.8473408619        2.5210610994
 O        -7.2598481600        4.1399672843        1.3627272539
 C        -8.0621040291        4.9628180857        3.4815684347
 C        -9.2429426327        5.7063877453        2.6507103668
 O        -8.9664519299        6.3619336134        1.6874500223
 C       -10.6291856865        5.8265228747        3.2803334456
 C       -11.5862501640        6.6237330781        2.3886787492
 C       -12.2180687533        5.7916954287        1.2655396834
 O       -12.5606122083        4.6326138491        1.5393800260
 C       -12.4032346527        6.4175056652       -0.1235306336
 C       -11.0315557667        6.1110938809       -0.9982039737
 O       -10.0651399416        6.8585854010       -0.7906574623
 C       -10.9362909117        4.9445933652       -1.9815209318
 C       -10.3371933941        5.3803984291       -3.3070352072
 C        -8.9305523726        4.7077342717       -3.4337763230
 O        -8.4324924530        4.0664044545       -2.5539120091
 C        -8.2816842340        4.6884908680       -4.9451953363
 C        -7.8484807709        6.1581971624       -5.1818871406
 O        -8.6831628783        6.9703021423       -5.4664874233
 C        -6.3854853299        6.6221453988       -5.1568330683
 C        -6.1788607393        7.8124802990       -4.2889168189
 C        -6.5514125876        7.4536229237       -2.8399531132
 O        -7.4966221908        6.7571282864       -2.5700283443
 C        -5.9900357571        8.2573430461       -1.6265954428
 C        -5.2064108199        7.3998274000       -0.4667485009
 O        -5.7658658896        6.6610654049        0.2759603885
 C        -3.6750183257        7.6159944783       -0.2744446668
 C        -5.1026308362        9.4961174862       -2.0785488330
 C        -7.2635609577        8.8729426751       -0.7792679364
 C        -7.1101594413        3.7545352204       -4.9883836253
 C        -9.3309149706        4.2729809823       -6.0718725374
 C       -13.6142056056        5.7798868436       -0.8670927127
 C       -12.5400599866        7.9898573005       -0.0175659268
 C        -8.4588802294        4.4955457061        4.8891665564
 C        -6.9387100488        6.0494248816        3.4511300726
 C        -9.7458527463       -0.2136680399        0.1047677093
 C       -10.9306815020        2.0585142640        0.0705409505
 C       -13.6943417250       -4.6496541240       -0.6962356025
 C       -15.5944090873       -3.1100644668       -0.1611329002
 H       -15.2798487359       -5.5453074397        3.2038255820
 H       -15.6257487955       -5.9249935908        1.3458026066
 H       -16.2694811744       -4.5028364630        2.3244121104
 H       -12.6817528986       -1.9853335874        2.3995897077
 H       -14.3794201896       -1.3453058229        2.0231602871
 H       -13.4998297834        0.6256014597        2.1918200270
 H       -13.1049336728        0.4124753063        0.4597944494
 H        -7.3559234031        1.6669161121        0.8147781615
 H        -7.4796688842        0.3888323981        1.9578081241
 H        -6.0494843863        2.3985216950        2.9241151383
 H        -7.3796538507        2.0092902696        3.9117634925
 H       -10.4397174427        6.2649831634        4.2413496098
 H       -11.0510248797        4.8679981689        3.5191200086
 H       -11.0837309841        7.6209051746        2.1451868541
 H       -12.3892888537        6.9098450962        3.1325183597
 H       -11.8826551307        4.4082040992       -2.0047413166
 H       -10.1729659453        4.2916868113       -1.4528055482
 H       -10.2503081725        6.4495009748       -3.4036498344
 H       -10.9883822970        5.1395275897       -4.2075137767
 H        -6.1523087976        6.8763911058       -6.1952064272
 H        -5.6769428177        5.7930481596       -4.9985713342
 H        -6.8246748657        8.6471075019       -4.5749286884
 H        -5.2265697800        8.3067326327       -4.2890369092
 H        -3.0949272930        7.4674183461       -1.2278879314
 H        -3.2913263772        6.8779877412        0.3583935580
 H        -3.4101391225        8.5687725030        0.1917410490
 H        -4.6641865478       10.1364062058       -1.3489386084
 H        -5.7234015920       10.0507433349       -2.7359366959
 H        -4.2191934520        9.1044049584       -2.5997079201
 H        -7.1310337396        8.9118593220        0.2710850309
 H        -8.0704232426        8.1591142400       -0.8410950028
 H        -7.6535535287        9.7578966150       -1.1795036401
 H        -6.4051660636        4.1351495334       -4.2422278269
 H        -6.6476885636        3.7297670521       -5.9924488830
 H        -7.2981626257        2.7121091271       -4.7426758774
 H        -8.9802106070        3.6458300767       -6.8597784345
 H        -9.8899852926        5.1564453497       -6.3986799861
 H       -10.1253575356        3.6132674464       -5.5781095024
 H       -13.4979515183        4.6888368517       -0.8244095769
 H       -13.4703105827        6.0644454965       -1.8978666235
 H       -14.4940820655        6.2498366055       -0.4724484709
 H       -11.5613549155        8.4859684295        0.0092557983
 H       -13.2296065741        8.3000541007        0.7923371862
 H       -13.0141776824        8.4786714796       -0.9794269289
 H        -8.5475304058        5.3624773720        5.5395172605
 H        -7.6695450168        3.9019655958        5.2927253139
 H        -9.3111295286        3.7364735148        5.0700187719
 H        -7.3761373046        7.0356213323        3.6171164329
 H        -6.5031952661        6.0287443253        2.4817302481
 H        -6.1600836352        5.9100765922        4.2731928581
 H        -8.7072560995       -0.4235223383        0.4185588422
 H        -9.6982872977        0.0987494478       -0.9183669073
 H       -10.4581020518       -1.0577941271        0.2078325781
 H       -10.2619112216        2.2728370989       -0.7116087002
 H       -11.2675815485        2.9744068947        0.5886874687
 H       -11.8182118883        1.6607579497       -0.4898734567
 H       -13.5256259686       -4.2002219569       -1.6554761548
 H       -14.4587949163       -5.4251587821       -0.7713210247
 H       -12.7720339351       -5.1252366346       -0.3525652297
 H       -16.1704027001       -4.0138564337       -0.2531830074
 H       -15.5884847177       -2.6252515957       -1.1019224979
 H       -16.0578407547       -2.4817045668        0.6510066140
 Na       -7.8832166950        5.6986442740       -0.3957210372
