117

 C       -16.1995954739       -4.1583764330        2.2319474266
 C       -14.7269387724       -3.9240011616        1.9845855672
 O       -13.8965065642       -4.1311342161        2.8035334198
 C       -14.3131539967       -3.2262269300        0.5954226459
 C       -13.3953687488       -2.0811648383        1.0687804995
 O       -12.2956544655       -1.9311021129        0.5584151531
 C       -13.7925312695       -1.1394008722        2.2592576177
 C       -12.8249819050        0.0290108349        2.3424542865
 C       -11.2604493544       -0.3410119522        2.2236894925
 O       -10.7533717823       -0.9035902096        3.1566715164
 C       -10.2701935510        0.1251856007        1.1185907720
 C        -9.6337085235        1.3546300455        1.7786879990
 O       -10.2956813842        2.2509615092        2.2587855912
 C        -8.0965042295        1.3429377749        1.9802330643
 C        -7.6866501099        2.5066846335        2.8952116980
 C        -7.8171354992        3.8886807644        2.1491557543
 O        -7.4630405882        3.9751052157        0.9819041736
 C        -8.1377822238        5.1991473680        3.0355747765
 C        -9.3796188501        5.7966460631        2.4001668827
 O        -9.2264331199        6.5830524906        1.4530438683
 C       -10.7828756986        5.6011964115        2.9009952084
 C       -11.7743971120        6.5293672527        2.2092287511
 C       -12.1571482012        5.9376423204        0.8695832882
 O       -12.3630180574        4.7463496298        0.6816906288
 C       -12.3055010159        6.9295171810       -0.4507660713
 C       -11.1585267625        6.3700105989       -1.2456692165
 O       -10.0555615352        6.9594052031       -1.2715226219
 C       -11.2237235142        4.9899446106       -1.9486918161
 C       -10.4664256794        4.9853593104       -3.2441494854
 C        -9.0326748713        4.5761557519       -3.0930263438
 O        -8.4499867561        4.3347470465       -2.0604553206
 C        -8.1562175060        4.3604628999       -4.4414502049
 C        -7.6663661605        5.7675860414       -4.9082692890
 O        -8.5609349057        6.5017174493       -5.1729923131
 C        -6.1722356982        6.2612800820       -5.1819150521
 C        -5.5374004963        7.3585070606       -4.3391608396
 C        -6.2302994159        7.5227696990       -3.0065883302
 O        -7.1939827511        6.7708966643       -2.7268132659
 C        -5.7011672997        8.5769933187       -1.9672172359
 C        -4.9861145595        7.7090953652       -0.8986975510
 O        -5.6176196434        6.8731497450       -0.2374537031
 C        -3.5610723315        7.8508753530       -0.5899000247
 C        -4.7339151948        9.5709263612       -2.6287285084
 C        -6.9543783432        9.2333598226       -1.3016633087
 C        -6.8737801501        3.5166679489       -4.0697413532
 C        -8.9583271749        3.7078027605       -5.5516276201
 C       -13.7346813639        6.6542855838       -0.9549203047
 C       -12.1875662701        8.4617560134       -0.1309581712
 C        -8.1917177563        4.7266351097        4.5116414041
 C        -6.9024499733        6.2273764674        2.9674766795
 C        -9.2635811673       -1.1039671470        0.9191071576
 C       -10.7922927036        0.4777101477       -0.3248304445
 C       -13.5244683345       -4.3532790229       -0.1072264584
 C       -15.4837682589       -2.6763708715       -0.2634330137
 H       -16.3028001869       -4.4302907256        3.3111565386
 H       -16.6250465544       -5.0646583627        1.7644226706
 H       -16.8486478138       -3.3223906200        1.8281663436
 H       -13.8842688959       -1.6375323398        3.2598290005
 H       -14.8172782265       -0.8125601476        2.1058362420
 H       -12.9404558354        0.5534127303        3.2308997330
 H       -13.1202409103        0.7636777429        1.5059870085
 H        -7.5418504954        1.5284690089        1.0955279018
 H        -7.7125480785        0.4577807089        2.4605348134
 H        -6.6518389964        2.3743150583        3.2856023983
 H        -8.3691919356        2.5690236358        3.7964511261
 H       -10.7041424369        5.7498501596        4.0294468101
 H       -11.0984275509        4.5395709771        2.7871982772
 H       -11.2091289057        7.4431354912        2.0438499541
 H       -12.6103990960        6.6975358705        2.8261861379
 H       -12.2853046184        4.7779471275       -1.9978024519
 H       -10.7579745109        4.2467090992       -1.2736817570
 H       -10.4547332188        5.9769750583       -3.7407282365
 H       -11.0393916999        4.2331611694       -3.8338019669
 H        -6.1561644692        6.5118585672       -6.2521513723
 H        -5.5052823380        5.4541900579       -4.9809522153
 H        -5.7266465675        8.2694099838       -4.9273590402
 H        -4.5139731786        7.1427324921       -4.1972672410
 H        -2.9500592644        7.6367852892       -1.4692716176
 H        -3.3906789504        7.1780328166        0.2857444835
 H        -3.2736830654        8.8488774368       -0.3902729902
 H        -4.3064638740       10.2382842696       -1.9042086318
 H        -5.1666148609       10.2314805413       -3.3473792260
 H        -3.8166535769        9.2544356902       -3.1486087352
 H        -6.8504958160        9.1910104041       -0.2325373611
 H        -7.8652729746        8.7313247638       -1.5748942299
 H        -7.0874203433       10.2558163609       -1.5300713198
 H        -6.1439024963        4.0918747631       -3.5065841852
 H        -6.3841314530        3.1687017825       -4.9704445761
 H        -7.1865892626        2.8063276208       -3.3522505444
 H        -8.5214630007        3.9003573349       -6.4720974352
 H        -9.8960978057        4.2079177699       -5.7374013551
 H        -9.2788603431        2.6566802830       -5.3572647162
 H       -13.8455271541        5.6293948598       -1.3730513865
 H       -14.0863494086        7.4678876732       -1.6035058687
 H       -14.3741878884        6.7745188885       -0.0726591491
 H       -11.2022679871        8.6952591658        0.3388204432
 H       -12.9991675087        8.8800487860        0.5048875246
 H       -12.3499291180        8.9791237666       -1.1513538353
 H        -8.3145628445        5.5386185472        5.2068944063
 H        -7.3496310886        4.0878766115        4.6905149837
 H        -9.1731355543        4.1648862142        4.5851636894
 H        -7.0292130421        7.1026053210        3.6046191852
 H        -6.8521278461        6.5478670273        1.9647474403
 H        -5.9296484596        5.7814746295        3.2632253680
 H        -9.1482582657       -1.5645952123        1.9055925374
 H        -8.3110176680       -0.7198311839        0.5415755237
 H        -9.6948439226       -1.8500285797        0.1908516488
 H        -9.9656517827        0.3953386767       -0.9765132026
 H       -11.1486851234        1.5108530494       -0.3848532098
 H       -11.7139632479       -0.1066989966       -0.6544380950
 H       -13.4121462754       -4.2827308501       -1.1512500573
 H       -13.9900268398       -5.3063147596        0.0784471374
 H       -12.4862603535       -4.3393722974        0.2140316225
 H       -16.2821594739       -3.3903165997       -0.3449754724
 H       -15.0759648903       -2.4301955782       -1.2053069490
 H       -15.8518991678       -1.7079898400        0.1607066103
 Na       -8.0477694631        5.9080037763       -0.5721822296
