117

 C       -16.5142107547       -4.1427214457        2.1556526396
 C       -15.0026729885       -3.8852466264        2.1955159910
 O       -14.3524892746       -4.1590429197        3.1371229144
 C       -14.3981591625       -3.2447633744        0.8667309582
 C       -13.3193959399       -2.2009896379        1.2238585500
 O       -12.2372479260       -2.1435164933        0.6615455845
 C       -13.6713671831       -1.0914882295        2.2526236289
 C       -12.7260859049        0.0754272703        2.1302632266
 C       -11.2609008936       -0.5393064533        2.2933216700
 O       -11.0082483627       -1.3516854425        3.1406751808
 C       -10.1939858183       -0.0043730180        1.2378153951
 C        -9.5093302603        1.2781602442        1.7857495347
 O       -10.2499486166        2.1794761072        2.1610430925
 C        -8.0307746684        1.4998394509        1.6739627377
 C        -7.5084967750        2.5411933803        2.7323977133
 C        -7.7485078689        3.9674357428        2.3169423178
 O        -7.4258952121        4.2231713451        1.1454615757
 C        -8.1385312162        5.2390609964        3.1346329800
 C        -9.4548174331        5.8240136487        2.4024237776
 O        -9.2780318643        6.3772782984        1.3139885885
 C       -10.8389297932        5.5525567826        2.9446121442
 C       -11.9332298380        6.3984873415        2.2894814845
 C       -12.2466336973        5.9478119704        0.8694776863
 O       -12.7422579408        4.8094338359        0.7368585935
 C       -12.1536203332        6.9238034781       -0.3674812878
 C       -11.0460286085        6.3443573024       -1.4249744475
 O        -9.9579311255        6.8690735431       -1.6287827622
 C       -11.4298524290        5.0242100758       -2.2087743770
 C       -10.4990467806        4.7677634476       -3.3879809221
 C        -9.0665239668        4.5300952454       -3.1055097982
 O        -8.5588447427        4.3239851088       -2.0156576896
 C        -8.0850253375        4.2458529350       -4.3603549990
 C        -7.5880285662        5.6956769908       -4.8871376863
 O        -8.4182072733        6.4278909927       -5.3223554523
 C        -6.0750325220        5.9677001752       -5.0463556788
 C        -5.6497111296        7.3320265236       -4.5467654525
 C        -6.2343806211        7.5180811237       -3.1667156655
 O        -7.2028287065        6.7752982998       -2.7974398098
 C        -5.6454003222        8.6785919576       -2.1882850004
 C        -4.9384336301        7.7842050078       -1.0092678223
 O        -5.5335063409        6.9266994400       -0.3824219387
 C        -3.4372920933        8.0372351647       -0.6768696191
 C        -4.7086782077        9.6797811171       -2.8523533982
 C        -6.9188638048        9.3608728949       -1.4734080387
 C        -6.9340787485        3.4264856839       -3.7260020418
 C        -8.7052956204        3.5519825042       -5.6128087319
 C       -13.5307489857        6.9998515983       -1.1273731095
 C       -11.7683869105        8.3717072148        0.0008184734
 C        -8.5181925208        5.0480956240        4.6122364442
 C        -6.9529856061        6.2460361809        3.1985012897
 C        -9.2188249483       -1.1160769671        0.8161537591
 C       -10.9611267253        0.4952504439       -0.0268251536
 C       -13.6798894046       -4.3452384563        0.0437597961
 C       -15.4896284210       -2.4273200255        0.0535246811
 H       -16.8142471837       -4.9462184194        2.7861297582
 H       -16.8330419568       -4.4496858228        1.1706373548
 H       -17.0807304853       -3.2793709199        2.3438122011
 H       -13.6695479599       -1.5411223001        3.2422728620
 H       -14.7504817781       -0.8033352820        2.1515163626
 H       -12.8009833103        0.6889351611        2.9115516228
 H       -12.9800589028        0.6977625324        1.2450310870
 H        -7.8377013661        1.8766271249        0.6336590536
 H        -7.4367999071        0.5815893809        1.8430140279
 H        -6.4300346550        2.5248876346        2.7609350326
 H        -7.8819478862        2.3357555533        3.7000636111
 H       -10.7836420049        5.7996963567        3.9898467544
 H       -11.0179753542        4.5113165942        2.8356165538
 H       -11.4529580796        7.4252571335        2.3258149974
 H       -12.8581368963        6.3238798701        2.9255134849
 H       -12.4862870039        5.1062026665       -2.5522010093
 H       -11.5104243583        4.2756169207       -1.4292984821
 H       -10.5445038943        5.6023182840       -4.1097647043
 H       -10.9467906085        3.9125767767       -3.8212615094
 H        -5.8654279784        5.9244985182       -6.0996618666
 H        -5.3028524477        5.2906232743       -4.6163791028
 H        -6.0872305342        8.0399644159       -5.2691444143
 H        -4.5518850712        7.3223701843       -4.5585404655
 H        -2.7581164150        8.0276169281       -1.5676040780
 H        -3.0911333877        7.3628223085        0.0924168109
 H        -3.3310589602        9.0469108573       -0.3059930931
 H        -4.3100700776       10.4406524014       -2.2190316808
 H        -5.1076574180       10.1772531596       -3.7000998111
 H        -3.7354981123        9.2825551638       -3.1744734444
 H        -6.9189893958        9.4090960158       -0.3579905482
 H        -7.8448868153        8.8421060792       -1.8273556756
 H        -7.0262604921       10.3882635569       -1.8897196826
 H        -6.6222178602        3.9566978344       -2.8285109938
 H        -6.0526013549        3.3997115367       -4.4028773000
 H        -7.2926544971        2.4523796325       -3.4011393712
 H        -7.9675091058        3.0635082819       -6.2696007750
 H        -9.3743212362        4.1978046233       -6.2334208795
 H        -9.3696458117        2.7098966341       -5.2777116455
 H       -14.0865188438        6.0472731937       -1.1065199168
 H       -13.3015708699        7.1365967236       -2.1859963064
 H       -14.0893221089        7.8488542102       -0.7786795399
 H       -10.7840021053        8.4256293611        0.3200513384
 H       -12.4592939203        8.7486069929        0.6907098362
 H       -11.7761344506        9.0163514479       -0.8986634575
 H        -8.7833984458        6.0100248132        4.9890670286
 H        -7.7323579529        4.6267549704        5.1271870665
 H        -9.4076633851        4.3485994921        4.7364768994
 H        -7.1124746174        7.1663167493        3.7996965563
 H        -6.7693738082        6.5215565945        2.1898927923
 H        -6.0261850633        5.8514511667        3.6638754328
 H        -8.3588340833       -1.2307310610        1.5075291960
 H        -8.8095801254       -0.9496877692       -0.1278149951
 H        -9.8504873085       -1.9996322311        0.7866470695
 H       -10.2491296119        0.7797206471       -0.7283803979
 H       -11.7348690782        1.2473500272        0.1131071049
 H       -11.5099013801       -0.3336060091       -0.4977637532
 H       -12.7698322818       -3.9450477308       -0.4244605404
 H       -14.2190901718       -4.9924994086       -0.6843319714
 H       -13.1451188920       -5.0200348810        0.7309146080
 H       -16.1427251006       -3.1446016109       -0.4751550143
 H       -15.1071837955       -1.6869707602       -0.6487137903
 H       -16.0510256548       -1.8642791128        0.8002301270
 Na       -7.6858223907        6.2324463939       -0.4280554704
