117

 C       -16.3296783849       -4.1722430836        2.2548917838
 C       -14.8577303911       -3.8432047927        2.0644452128
 O       -13.9982661895       -4.1596712556        2.9002901868
 C       -14.3334391939       -3.2217153476        0.7177139566
 C       -13.3331635997       -2.1111921884        1.1152619602
 O       -12.2268490725       -2.0071190534        0.6262800753
 C       -13.7249700529       -1.0812047764        2.2390770396
 C       -12.7530627727        0.1091931266        2.3449938898
 C       -11.2842736520       -0.3795167424        2.2865208363
 O       -10.8413476477       -1.0974481683        3.1424996017
 C       -10.2401788143        0.1233098495        1.1095069093
 C        -9.5850936276        1.3374514009        1.7659963972
 O       -10.3362226391        2.1611099238        2.2515765911
 C        -8.0719186377        1.4500731987        1.9274545229
 C        -7.7111112999        2.6129490241        2.8321570903
 C        -7.7383842395        3.9957763718        2.1850173695
 O        -7.4238787737        4.1293653726        1.0470153887
 C        -8.1556326231        5.1263120543        3.0438007998
 C        -9.3541342380        5.8465754170        2.4504893815
 O        -9.2309827571        6.4845273990        1.4385557343
 C       -10.8251700756        5.5405279733        2.9630484242
 C       -11.7958525489        6.4924691643        2.2032256000
 C       -12.2025108414        5.9800507866        0.8782209432
 O       -12.4830603576        4.8520481891        0.6649681204
 C       -12.3217145913        6.9410738984       -0.4077361516
 C       -11.1178531058        6.3841889001       -1.3304711021
 O       -10.0573600065        6.9869900406       -1.3246341502
 C       -11.3032333566        4.9499340262       -1.9999514907
 C       -10.5192670215        4.8052497574       -3.3406886082
 C        -8.9927829398        4.5090307735       -3.1264898039
 O        -8.6306983169        4.4736269757       -1.9776210517
 C        -8.1076407240        4.2544722077       -4.3631476999
 C        -7.6014349990        5.7858706382       -4.8788348164
 O        -8.4635462738        6.5907098275       -5.2532143445
 C        -6.1294382915        6.1368814295       -5.2996268491
 C        -5.4829674953        7.3524348742       -4.4084700315
 C        -6.2231161948        7.5199141970       -3.0351006415
 O        -7.1760279504        6.8678347347       -2.7819158437
 C        -5.6318876880        8.6118146241       -2.0286979580
 C        -4.9632130030        7.7015186876       -0.8880062785
 O        -5.6888516594        6.8821107394       -0.3352230060
 C        -3.4891179489        7.9823995043       -0.6576501260
 C        -4.7348652650        9.6337004885       -2.6289278835
 C        -6.9211103193        9.3058949606       -1.3461261119
 C        -6.7943444642        3.3752353596       -4.0628194965
 C        -8.9124523306        3.5797346973       -5.4554667324
 C       -13.7465359973        6.7438821798       -0.9887676915
 C       -11.9874846941        8.3912098659       -0.1320455957
 C        -8.2632650513        4.6944165800        4.6153804541
 C        -6.9564798351        6.1528038771        2.9727033121
 C        -9.3606969126       -1.1178025572        0.9614959722
 C       -10.8273279207        0.4755261613       -0.3238477117
 C       -13.6040297279       -4.3233739866       -0.0872761959
 C       -15.4734032690       -2.6757294782       -0.2463696520
 H       -16.5275457671       -4.6481128651        3.2022158384
 H       -16.6489564732       -4.9210807223        1.5746256117
 H       -16.9840944586       -3.2870741315        1.9759680971
 H       -13.5345478673       -1.6722090843        3.1535801755
 H       -14.7630644073       -0.9042728922        2.3312037249
 H       -12.7646086383        0.6590658895        3.4036057842
 H       -12.9490274202        0.8851924357        1.6147349045
 H        -7.4864546067        1.5610626186        1.0325125555
 H        -7.6544079299        0.6188734794        2.4989093657
 H        -6.7387631009        2.3678934140        3.2927966755
 H        -8.4521299579        2.6488736425        3.6799945390
 H       -10.9421746652        5.5601852990        4.0802619783
 H       -11.0987986408        4.4760385599        2.6494480956
 H       -11.3397001539        7.4359937888        2.1947508365
 H       -12.7088035189        6.5006399983        2.7415079648
 H       -12.3553954461        4.8252508778       -2.0873745524
 H       -10.9827879427        4.2077698977       -1.2418099058
 H       -10.5765525544        5.7285840974       -3.8873133104
 H       -11.1327283048        4.0084829088       -3.8202404288
 H        -6.2444537187        6.4441103651       -6.4075823107
 H        -5.4327181138        5.3289709961       -5.2501465850
 H        -5.7000090671        8.2267616364       -5.0221208395
 H        -4.4148444051        7.1802723290       -4.2370638118
 H        -3.0315827128        7.7794467348       -1.5901157181
 H        -3.0354627393        7.4173632716        0.2011008432
 H        -3.2891903931        9.0526669999       -0.5772033888
 H        -4.2731745356       10.3314399406       -1.9111336677
 H        -5.2238321667       10.2819012876       -3.3958176450
 H        -3.8123253886        9.3391361499       -3.1317202064
 H        -6.8151752768        9.1943151632       -0.2621587871
 H        -7.9002903703        8.9503242869       -1.6596461066
 H        -6.8779373442       10.3814633686       -1.5260949714
 H        -6.1326536194        3.8111866833       -3.2992120600
 H        -6.2353751953        3.2128284383       -4.9645261156
 H        -7.1962173547        2.5026015706       -3.5428535924
 H        -8.3802831068        3.2559866457       -6.3180105712
 H        -9.6390513454        4.2368275543       -5.8741105096
 H        -9.5159284615        2.8216623563       -5.0034759049
 H       -13.8159615897        5.7225940474       -1.4015925860
 H       -13.9154937592        7.5107650799       -1.8013443150
 H       -14.5265591997        6.9742454192       -0.2182137378
 H       -10.8634191334        8.4850360375        0.0536448829
 H       -12.5513197999        8.8690853478        0.6978287306
 H       -12.2792488748        8.9287110283       -1.0055772214
 H        -8.6968351593        5.5469101971        5.1657152516
 H        -7.2563770863        4.2858268445        4.9925058845
 H        -8.9898068997        3.9510969373        4.7228050592
 H        -7.0568627850        6.9402423045        3.6778354589
 H        -6.9720920061        6.5598451159        1.9475987518
 H        -6.0000770638        5.7276064262        3.1964484469
 H        -8.8732560321       -1.2444225132        1.8984461748
 H        -8.5691213818       -0.9146846119        0.1547845951
 H        -9.9840261134       -1.9811474184        0.7043535910
 H       -10.0136553537        0.3724132116       -1.1232948637
 H       -11.2245035757        1.4988094934       -0.3109889184
 H       -11.7502490068       -0.0872367640       -0.5596244564
 H       -13.2991181086       -4.0631356558       -1.0659140201
 H       -14.1955919951       -5.1975158626       -0.1501397762
 H       -12.6322918253       -4.5249512815        0.3422959271
 H       -16.1911213620       -3.3891744987       -0.6097710836
 H       -14.9115415648       -2.2087610248       -1.0413334025
 H       -15.9321918139       -1.8138295648        0.2598897213
 Na       -7.9413798586        5.9245092482       -0.5803924258
