117

 C       -17.0790356743       -4.3473592072        2.3502993862
 C       -15.6836944560       -3.6597653542        2.4939770794
 O       -15.2792679714       -3.3001851370        3.5686766167
 C       -14.7624778425       -3.3786291420        1.2103904285
 C       -13.3903111837       -2.5689943919        1.4012249383
 O       -12.6522015956       -2.4939705079        0.4115099531
 C       -13.2399782887       -1.6319070449        2.6672610831
 C       -12.4831121795       -0.3265158927        2.4516233650
 C       -10.8903220587       -0.4531073514        2.4046064269
 O       -10.3191089469       -1.0349139515        3.2834331057
 C       -10.0430126071        0.3098392600        1.2288829664
 C        -9.2278185149        1.4226748870        1.8589749066
 O        -9.8361968515        2.3632852536        2.3654946806
 C        -7.7009232844        1.4557479514        1.9338365349
 C        -7.4272094698        2.6872164433        2.7948448551
 C        -7.8200226501        4.0384901914        2.1314285720
 O        -7.4301811595        4.2423704427        1.0177817636
 C        -8.4394545304        5.2058539545        2.9319808926
 C        -9.6188617713        5.6892841530        2.1273422185
 O        -9.4279729150        6.1954909469        1.0428308290
 C       -11.0426613803        5.2923995568        2.5552190090
 C       -12.0331876968        6.3155194906        1.9318614737
 C       -12.1531710648        6.0746813560        0.4794784713
 O       -12.4546885956        4.9222806608        0.0957187816
 C       -11.9204776217        7.2748954915       -0.5828373984
 C       -10.7157541152        6.7565619960       -1.5303822928
 O        -9.6701402719        7.3833747326       -1.5394355820
 C       -11.1192353133        5.4158558214       -2.3087110192
 C       -10.2164642750        4.9152107332       -3.3854775697
 C        -8.9000124210        4.2966614910       -2.9519676786
 O        -8.6943961433        4.0651327080       -1.7907226006
 C        -7.9034161928        3.8814463258       -4.0784518091
 C        -7.4934082672        5.2241301334       -4.9450664931
 O        -8.3719559237        5.7394370713       -5.5525745819
 C        -6.0826613325        5.7958297749       -5.0937957944
 C        -5.8986486087        7.2146394098       -4.5701811039
 C        -6.1989408940        7.3021580967       -3.1012585437
 O        -6.7783909944        6.3245408347       -2.6227992874
 C        -5.7185100476        8.6085351199       -2.3035616844
 C        -4.9926338004        8.1496896875       -0.9850066907
 O        -5.5464342442        7.5230633699       -0.1221582590
 C        -3.4585345739        8.3269374241       -0.9472143107
 C        -4.8570512333        9.5977785473       -3.1460565709
 C        -7.1104797645        9.2261204251       -2.0023177788
 C        -6.6314700277        3.1730081959       -3.5577303014
 C        -8.6836835603        2.9805312135       -5.1014663800
 C       -13.2011006282        7.4790353052       -1.3758369468
 C       -11.4814015040        8.6029309092        0.0179364729
 C        -8.7901770337        4.7927447020        4.3708883020
 C        -7.3533435187        6.3223512632        3.1860111134
 C        -9.1503165409       -0.8182111560        0.6990564254
 C       -10.8970515443        0.9204023522        0.0745824918
 C       -14.6247792504       -4.6098390028        0.2629239457
 C       -15.6229950641       -2.3552493711        0.3723445346
 H       -17.4394339638       -4.6531528641        3.3775072345
 H       -17.2127540928       -5.1395458740        1.5593919881
 H       -17.8538795008       -3.5826147051        2.1849104131
 H       -12.7679852396       -2.2416453885        3.4131750341
 H       -14.2837429460       -1.4807102484        3.0230679855
 H       -12.5612120041        0.2696145801        3.3704126527
 H       -12.9074935529        0.2933399558        1.5126850817
 H        -7.2738171867        1.5721347396        0.9337222181
 H        -7.2123942581        0.5976575437        2.3101118199
 H        -6.3290385637        2.6984056934        3.1346256504
 H        -8.0198756254        2.5554356737        3.6959986918
 H       -11.1157763842        5.4928349662        3.6518130862
 H       -11.3058925694        4.2568375606        2.1873068425
 H       -11.6979669731        7.2725327581        2.2330884096
 H       -12.9933300957        6.2062726005        2.3751610143
 H       -12.1630292053        5.5784014104       -2.6402923951
 H       -11.2664120633        4.6508712631       -1.5542612170
 H       -10.0222520170        5.6674334012       -4.2105700970
 H       -10.7686003801        4.1390176743       -3.9424178090
 H        -5.9087747336        5.8134480301       -6.1543682961
 H        -5.1763138120        5.2350649642       -4.7075427641
 H        -6.5622739163        7.8475057399       -5.1177456284
 H        -4.8760888232        7.5542074427       -4.8184405481
 H        -3.0336875915        7.6899008134       -1.7405155363
 H        -2.9208959014        7.9871753445       -0.0624711066
 H        -3.1954176831        9.3600434908       -1.0493809125
 H        -4.5775340025       10.5129672672       -2.6880007145
 H        -5.3093340525        9.9152473773       -4.0409251673
 H        -4.0143918533        9.0875137505       -3.5869008861
 H        -6.9376870582       10.0806091752       -1.3808869101
 H        -7.6526062852        8.4817565799       -1.4648008759
 H        -7.5712668774        9.5147986634       -2.9250896371
 H        -6.0549305752        3.9399939449       -3.0645449315
 H        -6.0434156650        2.7640406581       -4.3889189149
 H        -6.7988587145        2.3303367921       -2.8835509822
 H        -8.0389139371        2.1848172628       -5.5380601578
 H        -9.2025360933        3.6396624296       -5.8478964329
 H        -9.4743278586        2.4232786593       -4.5408137754
 H       -13.8017475045        6.5687499282       -1.3402423199
 H       -13.0999237784        7.7516913990       -2.4334161645
 H       -13.8881509692        8.1868282778       -0.9328685641
 H       -10.6521788227        8.4115890599        0.6936241488
 H       -12.2611375847        9.1006054052        0.6453235480
 H       -11.1916751728        9.3510260583       -0.8180272035
 H        -9.1876563719        5.6399948863        4.9321974459
 H        -7.8704668367        4.5598673645        4.7978058254
 H        -9.5347621235        3.9214839781        4.4434728961
 H        -7.7655009781        7.1452731450        3.7974878442
 H        -7.0910122168        6.7985399336        2.2671732512
 H        -6.4180025017        5.8557701255        3.4954109495
 H        -8.5631707061       -1.2664905659        1.5679609737
 H        -8.5014324324       -0.5470438780       -0.0860008072
 H        -9.7267693449       -1.6905974261        0.3398040909
 H       -10.3404781289        1.3002178123       -0.7340480955
 H       -11.3610544646        1.8187964017        0.4288293452
 H       -11.6312155340        0.2123308303       -0.3122985600
 H       -13.9598881167       -4.4372230545       -0.5738678806
 H       -15.5323397453       -4.8822956407       -0.2860430484
 H       -14.4215347585       -5.5450872849        0.7428079962
 H       -16.4648585891       -2.7627157396       -0.2174229485
 H       -14.8829582748       -1.8881611750       -0.2971526087
 H       -16.0351644260       -1.6072759423        1.0073666965
 Na       -7.7031701829        6.2507361864       -0.3903037369
