117

 C       -16.9128456899       -4.3527133388        2.4284646928
 C       -15.7002742766       -3.4704789047        2.5757409461
 O       -15.3557554009       -3.0588763223        3.6441550386
 C       -14.8963200752       -3.1065390105        1.2165330898
 C       -13.4665754162       -2.5516429822        1.3903408565
 O       -12.6876979843       -2.7078061480        0.5032218093
 C       -13.0014219729       -1.8256422441        2.7538363713
 C       -12.4746294393       -0.4009885965        2.4259958012
 C       -10.8851588209       -0.4718039443        2.3735966999
 O       -10.2927870402       -1.0400193832        3.2527726612
 C       -10.0656726739        0.2992174269        1.2080716872
 C        -9.3000509559        1.5297063775        1.9601449812
 O        -9.9627132945        2.4908260155        2.2865820299
 C        -7.7899681507        1.4776162952        2.0942210668
 C        -7.1201439842        2.6340414662        2.8476274836
 C        -7.6127840350        3.9349515623        2.2293983724
 O        -7.3446416976        4.1351383269        1.0215835633
 C        -8.3828826890        5.1174469816        3.0049084271
 C        -9.6720452500        5.5820312331        2.1970064300
 O        -9.4416254785        6.0369503326        1.0748063356
 C       -11.0591673038        5.4150195365        2.6951735395
 C       -12.0280737711        6.3583121138        1.9701239417
 C       -12.1817814073        6.1990587078        0.4333204871
 O       -12.6379732306        5.1429616745        0.0850557552
 C       -11.8791217885        7.2867217232       -0.6607398824
 C       -10.7258438560        6.7292271089       -1.5530491807
 O        -9.6760100695        7.3491192697       -1.7261434825
 C       -11.0036089850        5.3661388805       -2.2793807055
 C       -10.0371188940        5.2862222466       -3.4708252707
 C        -8.7702802910        4.5678145320       -3.0295710752
 O        -8.5112562154        4.4107651651       -1.8219821865
 C        -7.7482351300        3.9114307281       -4.0655423750
 C        -7.3885148785        5.0752253551       -5.0871498076
 O        -8.2156486326        5.7709038490       -5.7153950040
 C        -5.8949955531        5.4730674487       -5.1784367757
 C        -5.8888429223        6.9747977778       -4.7033428677
 C        -6.1755946798        7.1182165699       -3.2345959819
 O        -6.6307191476        6.1577188045       -2.6517402068
 C        -5.8721114384        8.4878206919       -2.4193797176
 C        -5.2273684601        8.0486623932       -1.0452018516
 O        -5.8974520974        7.6123707310       -0.0730407308
 C        -3.7575803491        8.3313871319       -0.8734203971
 C        -4.9483417185        9.4406955821       -3.2269534526
 C        -7.2025390446        9.2616896111       -2.0008819732
 C        -6.7041129942        3.1472935564       -3.2981151214
 C        -8.5426569165        2.8951659471       -4.9469922978
 C       -13.1505760843        7.3925268364       -1.5954124842
 C       -11.4899390775        8.6460260156       -0.0002361809
 C        -8.8342254896        4.6586812614        4.4599667310
 C        -7.4305270989        6.3300805664        3.0454217573
 C        -9.1882742511       -0.7808821778        0.5911343965
 C       -11.0032854059        0.9660678913        0.1177527928
 C       -14.7286092950       -4.4605290938        0.5438388218
 C       -15.8126690619       -2.1630896755        0.3916803239
 H       -17.1985362214       -4.7701032403        3.3504497155
 H       -16.7005385080       -5.0900103532        1.6807117695
 H       -17.8246643759       -3.8466352343        2.1489952047
 H       -12.1381546215       -2.4012048120        3.1608598830
 H       -13.8270308790       -1.8528020513        3.4296485380
 H       -12.6587628646        0.2567853841        3.2546869107
 H       -12.8226262889       -0.0188870452        1.5671415016
 H        -7.3609469966        1.3123127359        1.0890179079
 H        -7.5438702898        0.5031225439        2.6197337823
 H        -6.0767901911        2.6294605340        2.7002172838
 H        -7.2755796792        2.5044596503        3.9258309139
 H       -11.0876035298        5.6042224855        3.7505350815
 H       -11.3395212653        4.4266778856        2.3884193630
 H       -11.7418955838        7.3800179439        2.3129481583
 H       -13.0648460990        6.2669150341        2.4042155433
 H       -12.0194164097        5.3917493953       -2.6424613758
 H       -11.0053963133        4.5593435328       -1.5083143163
 H        -9.8179500647        6.2735815616       -3.7914946307
 H       -10.4520125858        4.8369794346       -4.3756158096
 H        -5.5757296703        5.4221882791       -6.2465225419
 H        -5.1735612720        4.8979822000       -4.5866682322
 H        -6.7023924308        7.5083203583       -5.2915326556
 H        -4.9697099456        7.5207897248       -4.9409459317
 H        -3.0731875149        7.8970386541       -1.5889378923
 H        -3.4255043736        7.8728618552        0.0262151465
 H        -3.5748502218        9.4300138698       -0.7050637526
 H        -4.8010457791       10.4126207010       -2.7047630717
 H        -5.3840268394        9.6968202243       -4.2249865180
 H        -4.0104877041        9.0227011409       -3.5677099820
 H        -7.0979025560        9.8250157033       -1.0871834663
 H        -8.0037676401        8.5299305048       -2.0182251061
 H        -7.3014979243        9.9834552476       -2.8039286381
 H        -6.3324787255        3.7635099783       -2.4381673837
 H        -5.8643832233        2.8183819076       -3.9348034183
 H        -7.2051709065        2.2753560396       -2.7957817191
 H        -7.9360009052        2.8012806842       -5.8565989141
 H        -9.4815561816        3.2611897318       -5.2678522437
 H        -8.6605231444        1.9672695680       -4.4357704277
 H       -13.6046421162        6.4260055173       -1.8692041781
 H       -12.9767226251        8.0561629228       -2.4768931254
 H       -14.0287587408        7.9369464631       -1.1483521986
 H       -10.5562312649        8.5017952974        0.5966827422
 H       -12.1960648950        8.9223277692        0.7995039798
 H       -11.4873093536        9.4421298908       -0.6718657430
 H        -9.4198790154        5.4976548002        4.9018971872
 H        -7.9481727314        4.3859048933        5.1368595226
 H        -9.5455135038        3.8724854438        4.4077352407
 H        -7.9488270266        7.2466399051        3.1607787298
 H        -6.8921491746        6.4258057956        2.0820503755
 H        -6.6321804274        6.1955146578        3.7207361200
 H        -9.1315964438       -1.6371083152        1.1979246375
 H        -8.1942149394       -0.4833956120        0.1431941138
 H        -9.6915493215       -1.1773500094       -0.2781491270
 H       -10.4473191781        1.4319416663       -0.7721769622
 H       -11.6475770301        1.8328196464        0.3797731495
 H       -11.5753102664        0.1231378868       -0.2259329421
 H       -13.8363738442       -4.4984769200       -0.0613836107
 H       -15.4119749538       -4.8632234957       -0.1594833440
 H       -14.5875035783       -5.2085289550        1.3150243107
 H       -16.8014032727       -2.5314520904        0.5248971952
 H       -15.5517994148       -2.0220349969       -0.6397486014
 H       -15.8348144919       -1.1829320898        0.9012073951
 Na       -7.6332866687        6.1606193429       -0.4588537528
