117

 C       -16.9509045259       -4.3194126870        2.6581932000
 C       -15.7237370137       -3.4214141912        2.6907131202
 O       -15.4962433312       -2.8412887715        3.7863872927
 C       -14.9355539828       -3.1446424999        1.3430853659
 C       -13.4889439791       -2.5756003402        1.5411021637
 O       -12.7072466364       -2.6497087852        0.5985997513
 C       -13.0055035720       -1.7637761005        2.8079079354
 C       -12.3965349755       -0.4582184944        2.3575657906
 C       -10.8703374904       -0.4775314152        2.3320391430
 O       -10.1567739021       -0.9761348224        3.1749155722
 C       -10.1046107020        0.3725066626        1.1460781852
 C        -9.3850522459        1.5156068024        1.9482919437
 O        -9.9433335400        2.5767959569        2.2360362971
 C        -7.8971875646        1.2948681911        2.2728999377
 C        -7.2637207426        2.6007728561        2.8287329712
 C        -7.5554313643        3.9299189086        2.1163798456
 O        -7.1220171967        4.2086098757        1.0503008611
 C        -8.4119189236        5.0367147544        3.0075125903
 C        -9.6339923636        5.5268881522        2.1110375313
 O        -9.5793648854        6.0490209430        1.0075894783
 C       -11.1035374847        5.4779563129        2.7039764144
 C       -12.0130167173        6.5368255290        1.9304494509
 C       -12.2902623363        6.1811500502        0.4581936276
 O       -12.7804302601        5.1231411741        0.1312484449
 C       -11.9354752689        7.2780598270       -0.6776374425
 C       -10.7491265444        6.6965321483       -1.5113976693
 O        -9.7172865454        7.3309813616       -1.4874064017
 C       -11.0285631889        5.5122168450       -2.4636389909
 C        -9.9734504882        5.3099181245       -3.5672965754
 C        -8.7058894343        4.5014115651       -3.1158600479
 O        -8.4157497289        4.4369625222       -1.9670772752
 C        -7.7112838564        3.7901509881       -4.1370838232
 C        -7.2578988668        4.9673599022       -5.0626890043
 O        -8.1376572657        5.4798355174       -5.7390991974
 C        -5.7901606508        5.4599273152       -5.1112663522
 C        -5.5676646576        6.9448310276       -4.6551176668
 C        -6.0076767971        7.1666693609       -3.1863340265
 O        -6.4918883887        6.2006174454       -2.6041598918
 C        -5.8851788838        8.5379812437       -2.5267455278
 C        -5.3100975500        8.0384247974       -1.0553070325
 O        -6.0944195502        7.6117290244       -0.2816435574
 C        -3.9239185578        8.2992075377       -0.6660180015
 C        -4.9179818826        9.4195079051       -3.3012961730
 C        -7.3202341734        9.1701894314       -2.3364424728
 C        -6.5182927017        3.1675994354       -3.3660513191
 C        -8.5052461920        2.7232903325       -4.9701705952
 C       -13.2514970815        7.5642220139       -1.4551900921
 C       -11.4284644752        8.6635612807       -0.1192618639
 C        -8.7110207067        4.5371731055        4.4642551580
 C        -7.4931621688        6.2513324443        3.1035006357
 C        -9.1016132009       -0.5505384513        0.4873141465
 C       -11.0898936812        1.0033216545        0.1939657264
 C       -14.7984372432       -4.4135368041        0.4276933164
 C       -15.7158748684       -2.0523777785        0.5180132444
 H       -17.3780646475       -4.4937945998        3.6494057537
 H       -16.8699343390       -5.2232563054        2.1063958904
 H       -17.7412300833       -3.7374249781        2.1311062198
 H       -12.2049041091       -2.3789277373        3.2206623014
 H       -13.8551174319       -1.6535446901        3.5187303418
 H       -12.6787195631        0.3874743764        3.0613655157
 H       -12.6625471746       -0.1566518896        1.2850013689
 H        -7.3802206656        0.9943208798        1.3614358307
 H        -7.7365389665        0.4814730487        2.9519114251
 H        -6.1454051157        2.5303779626        2.8926463447
 H        -7.5538803268        2.6511803698        3.8716336264
 H       -11.1145616976        5.7382740564        3.7687750508
 H       -11.5748573024        4.5138655316        2.4691268020
 H       -11.5990420301        7.5434512074        2.0528794575
 H       -12.9623037099        6.6226492793        2.4344253731
 H       -12.0622733026        5.6187571246       -2.8958839154
 H       -11.0736773275        4.6701231351       -1.7780315203
 H        -9.5821764747        6.3249389241       -3.8661987375
 H       -10.4393615859        4.9659092743       -4.4903966298
 H        -5.4214279133        5.4002114881       -6.1420991050
 H        -5.2586439078        4.7606597716       -4.4693991318
 H        -6.1652898624        7.5844263404       -5.2899411909
 H        -4.5403830639        7.3084127971       -4.8021401502
 H        -3.1882968379        7.9411062796       -1.3830045103
 H        -3.6431429649        7.8592270194        0.3461114870
 H        -3.8207733542        9.3400739548       -0.6182233413
 H        -4.7705838452       10.3607057978       -2.7717548643
 H        -5.3439808460        9.6760092844       -4.2756182362
 H        -3.9030879605        8.9950340309       -3.5488901584
 H        -7.0998959969       10.1314109979       -1.8156739433
 H        -7.9311826737        8.4542861401       -1.7595861213
 H        -7.7386264327        9.4635677861       -3.3164712580
 H        -5.9046125571        3.8120988662       -2.7664648614
 H        -5.8973112385        2.7111947392       -4.1377088882
 H        -6.8780844888        2.4688715897       -2.6367207075
 H        -7.8327481216        2.3471714078       -5.7117560906
 H        -9.3289050890        3.1612359965       -5.5741385016
 H        -8.9097129229        2.0195216733       -4.1925466241
 H       -13.6864237197        6.6704743757       -1.8478125789
 H       -13.1726022538        8.3153605102       -2.2081731021
 H       -14.0263349078        8.0144707592       -0.8979019643
 H       -10.5679260621        8.6193652741        0.4817390957
 H       -12.1186134616        9.2066115241        0.4348845958
 H       -11.3007206567        9.2452608752       -1.0388305326
 H        -9.2887071123        5.2361316634        4.9967196288
 H        -7.7666463824        4.3722020031        4.9018422528
 H        -9.2950621577        3.6202795292        4.4730598781
 H        -8.1146398526        7.1007159438        3.4816782337
 H        -7.0874954689        6.5670107578        2.1565381228
 H        -6.6212061374        6.1461368562        3.8074116735
 H        -8.3479408337       -0.9892844409        1.1487384613
 H        -8.6869802454       -0.1123498244       -0.3659978280
 H        -9.5768231238       -1.4654808414        0.0892778319
 H       -10.5980415728        1.6362069525       -0.4775854401
 H       -11.8357568393        1.6307360749        0.6649158702
 H       -11.6121887749        0.1977423938       -0.3734574390
 H       -14.3848470644       -4.3162913351       -0.5848710434
 H       -15.8101613465       -4.7987916812        0.1794064741
 H       -14.2193976547       -5.2721552208        0.8479307819
 H       -16.8076490483       -2.2262123440        0.5546010781
 H       -15.3603167575       -2.0816060343       -0.5116002583
 H       -15.5039797425       -1.0569818497        0.8905835117
 Na       -7.7815746383        5.9341898569       -0.4013873871
