117

 C       -16.8910022314       -4.3522238389        2.1140432957
 C       -15.4830193306       -3.7687225206        2.2763826334
 O       -14.9364713514       -3.8725123088        3.3645103405
 C       -14.7765668249       -3.1945214920        1.0395808084
 C       -13.4606871864       -2.3768958086        1.4367827982
 O       -12.5045828878       -2.4861072117        0.6569722429
 C       -13.3706254298       -1.3917178899        2.6449535905
 C       -12.5322714728       -0.1357093175        2.2757424738
 C       -10.9943155935       -0.4755377957        2.3341494411
 O       -10.5814144984       -1.1500293497        3.2321715841
 C       -10.0769663973        0.1504886593        1.1784775258
 C        -9.4845527235        1.4227063823        1.8940262004
 O       -10.1935909984        2.2877037346        2.3513644217
 C        -7.9546896012        1.5421576495        1.9417534556
 C        -7.2684989621        2.7483441828        2.6390536073
 C        -7.6245313591        4.0805652011        2.0503382518
 O        -7.3108288940        4.2977813792        0.9140053452
 C        -8.3787367329        5.1504235583        3.0162261266
 C        -9.6768872199        5.7717816100        2.2387958503
 O        -9.5886735458        6.6111205555        1.3572176098
 C       -11.0146675272        5.4640179456        2.8071477511
 C       -12.1007882920        6.3350043298        2.1000729780
 C       -12.1799026343        5.9754965865        0.6211570897
 O       -12.6138178770        4.8868484087        0.2863615733
 C       -11.9351798359        7.1219354469       -0.5088512890
 C       -10.8896341450        6.4411213786       -1.4396799654
 O        -9.7571334901        6.8706827542       -1.5927638974
 C       -11.3387149255        5.2139635201       -2.3399031370
 C       -10.3172785856        4.9502602387       -3.4439186625
 C        -8.9828155600        4.2700745422       -3.0804388318
 O        -8.5310985662        4.1717723563       -1.9886288181
 C        -7.9703020599        3.9028243646       -4.3167025837
 C        -7.5404055078        5.3899448603       -4.9003119124
 O        -8.4756894489        6.0495409743       -5.3158543418
 C        -6.1146638242        5.8867016677       -5.0281915940
 C        -5.9039841884        7.3712533375       -4.5633279959
 C        -6.1859007120        7.4346215356       -3.0658022878
 O        -6.8725214670        6.5381157795       -2.5487182741
 C        -5.6575268463        8.7452029408       -2.2157387386
 C        -4.8220456812        8.0188161621       -1.0649156051
 O        -5.4129885712        7.3239853388       -0.3088486013
 C        -3.3802563472        8.3150656451       -0.9184985052
 C        -4.7954818055        9.6086181131       -3.1740834694
 C        -6.8348822653        9.5648089170       -1.5123239575
 C        -6.8058988263        3.1957335850       -3.5141338571
 C        -8.7160512792        3.0161529511       -5.2946152127
 C       -13.2845435363        7.4629105961       -1.1562025403
 C       -11.4073858501        8.4661147102       -0.0083920091
 C        -8.5804671730        4.6859195393        4.4603157910
 C        -7.3514984459        6.3904507114        3.0901143294
 C        -8.9781671413       -0.8827588199        0.7633914877
 C       -10.8509703364        0.6306835557       -0.0870803299
 C       -14.1749423332       -4.4290427276        0.3734108332
 C       -15.7143889727       -2.3854978774        0.0941678295
 H       -17.1215577071       -4.9274269703        2.9858825345
 H       -16.9859072773       -4.9435815520        1.2622444658
 H       -17.6786304033       -3.6089638689        2.0918665257
 H       -12.9516447630       -1.9181488092        3.4874778865
 H       -14.3753937257       -1.1298003057        2.9835817732
 H       -12.7419890724        0.5282767464        3.0193969839
 H       -12.8026749257        0.3514503661        1.3025482933
 H        -7.5131553778        1.5213698184        0.9171098564
 H        -7.5399423933        0.6115599750        2.4016755370
 H        -6.2145931774        2.6321939001        2.4688351317
 H        -7.4766159849        2.7105699701        3.6984729326
 H       -11.0444342270        5.6058697950        3.8929942556
 H       -11.2546085531        4.4570580674        2.5156460218
 H       -11.8446108431        7.4145028349        2.2920348042
 H       -13.0287029663        6.0919024715        2.6265426745
 H       -12.3738100209        5.4581713842       -2.6159594537
 H       -11.5017679173        4.3417303211       -1.7335716280
 H        -9.9424385954        5.9085608610       -3.8489869022
 H       -10.7780645368        4.4750502306       -4.2705679554
 H        -5.7705206757        5.7728041423       -6.0896827805
 H        -5.3594614495        5.2663611241       -4.5430953411
 H        -6.6953556082        7.9276258275       -5.1488144254
 H        -4.9088121008        7.7337366136       -4.8376349275
 H        -2.8014315814        7.9076394269       -1.7518125394
 H        -2.8955981554        7.8417177897       -0.0183633046
 H        -3.2339852085        9.3476508594       -0.8263049001
 H        -4.3437439914       10.4512995253       -2.6171898678
 H        -5.2551924994       10.1979554947       -3.9785892196
 H        -3.8629851679        9.1272220970       -3.6239901575
 H        -6.6231550925       10.6510443209       -1.4605994713
 H        -6.8243580164        9.1701938291       -0.4783352078
 H        -7.7665164756        9.2862039772       -2.0002470851
 H        -6.5780984679        3.8640800079       -2.6836600970
 H        -5.8868146630        3.1174663975       -4.1247681618
 H        -7.0154133808        2.1565520082       -3.3228806394
 H        -8.1845281723        2.3170750550       -5.8284016350
 H        -9.3792158288        3.6395297622       -5.8336225180
 H        -9.3589968227        2.3368461540       -4.7041613653
 H       -13.6709310601        6.7453683076       -1.9200125343
 H       -13.0888803297        8.2885243544       -1.8548794168
 H       -14.0720664977        7.6171364672       -0.3974723584
 H       -10.3956809510        8.4448892133        0.3110430283
 H       -12.0821737396        8.8344925755        0.7055901593
 H       -11.3157517573        9.1896652033       -0.8579501021
 H        -8.7382385796        5.5973968383        5.0228197590
 H        -7.6933953193        4.2844985049        4.9307910590
 H        -9.4142723454        3.9097936476        4.4926136828
 H        -7.7652804244        7.1588714722        3.7549346661
 H        -7.0452626242        6.8585004067        2.1914036625
 H        -6.4262439562        6.0336820066        3.5975840914
 H        -8.3975279708       -1.1903520185        1.6507612399
 H        -8.2437082493       -0.4359301500        0.1160484543
 H        -9.4233560871       -1.7708595744        0.2493641081
 H       -10.1354991342        1.0130777421       -0.7864675684
 H       -11.5357548234        1.4852536764        0.1730059630
 H       -11.4032834859       -0.1601013030       -0.7429397063
 H       -13.9205823419       -4.1616342737       -0.6309667641
 H       -14.7995449392       -5.3067266647        0.2472379115
 H       -13.3198848076       -4.8793076393        0.8846293544
 H       -16.5962713872       -3.0066391318       -0.0561929360
 H       -15.2773378486       -2.2676586640       -0.8730597362
 H       -16.0320379753       -1.4202750144        0.5236730933
 Na       -7.7916225878        6.0580142135       -0.4793698838
