117

 C       -12.3701942271        5.8120290243        1.2646744847
 C       -11.8241421465        4.4735004225        1.6722770191
 O       -11.9233847440        3.5527585976        0.8773538922
 C       -11.0335903355        4.4483954709        3.0594305737
 C       -11.4588192762        3.0522499271        3.8366565904
 O       -10.6010274997        2.1456630153        3.8554639601
 C       -12.7808742791        2.7844301942        4.6656790016
 C       -13.7790114178        1.7229113019        4.1921195922
 C       -14.5299003625        2.0436469457        2.9078038859
 O       -14.6077904064        3.0839949157        2.3762220521
 C       -15.0972027805        0.6704147399        2.1925980718
 C       -13.5668807487       -0.0267144324        1.3614296818
 O       -12.5250475125       -0.2366262861        1.9737079375
 C       -13.8182349044       -0.7521272213       -0.0471243880
 C       -13.0281885533       -2.0186050294       -0.2712747970
 C       -11.5975850458       -1.6379481122       -0.7076075050
 O       -11.2634196580       -0.4852493240       -0.7141555652
 C       -10.4883533350       -2.6509410472       -1.0736729393
 C        -9.5110690412       -2.6559893084        0.3473322496
 O       -10.0198552270       -2.5638642364        1.4167548119
 C        -7.8571870429       -2.7628312715        0.3586318184
 C        -7.3791556664       -1.7183157354        1.3807496523
 C        -7.9247340554       -0.2849015095        1.1881350892
 O        -9.1086020829        0.0060667460        1.3458859682
 C        -6.7399347502        0.8484382962        0.9758217331
 C        -7.4346555553        2.2337531229        0.2552346453
 O        -8.6162868257        2.4059781053        0.2269370550
 C        -6.5374747266        3.0853042460       -0.4872735019
 C        -7.0988399424        3.9946862048       -1.5389612982
 C        -6.5201722778        5.5228044198       -1.4224676297
 O        -6.1030360806        5.8637516325       -0.3571183246
 C        -6.7868627886        6.6221892328       -2.4757003041
 C        -8.1157532466        7.4285537182       -2.0475907079
 O        -8.6816197258        7.3892243429       -0.9414033081
 C        -8.4522499960        8.5019893735       -3.1081727419
 C        -8.2614359304        9.9137326290       -2.5525607240
 C        -8.9958269984       10.9920560095       -3.4414669587
 O       -10.0859544656       11.3916434208       -3.1706372695
 C        -8.3852866313       11.4451762182       -4.9621481176
 C        -7.4481710491       10.5074142355       -5.9281355771
 O        -7.3562793871        9.3556012792       -5.6786310609
 C        -6.8617327304       10.9940851678       -7.2449713624
 C        -9.6736478105       11.7037751814       -5.8716740838
 C        -7.4703546449       12.8187727299       -4.8882703446
 C        -5.6453924230        7.5760081908       -2.4487669156
 C        -7.1132092966        6.0604554115       -3.9170536233
 C        -6.3807224600        1.4431555329        2.4309603544
 C        -5.5228743993        0.3975999782        0.1670586311
 C       -11.0203138298       -4.0786863118       -1.1425199335
 C        -9.8308682594       -2.1025694771       -2.4402387204
 C       -15.3698531422       -0.6141979957        3.1166114858
 C       -16.2342457851        1.0259828200        1.2265503141
 C        -9.6203573915        4.4518499411        2.5423800388
 C       -11.3394888070        5.6695254143        3.9418497289
 H       -13.4370327524        5.9875978840        1.6744997842
 H       -12.5240779121        5.7096299546        0.2141083261
 H       -11.7442544824        6.7168283550        1.4763229541
 H       -13.2705206074        3.7846087993        4.7800169337
 H       -12.3655012187        2.4686617738        5.6713905740
 H       -14.3965992513        1.5201944207        4.9998487011
 H       -13.2361332574        0.7977362931        3.9630842420
 H       -13.6849294650       -0.0706208962       -0.8413901884
 H       -14.8679062837       -0.9686819237       -0.1524809437
 H       -13.5176374116       -2.4885333813       -1.1421887486
 H       -13.0169407173       -2.7599988468        0.5769048015
 H        -7.5207940415       -2.4607528358       -0.6215845271
 H        -7.7883223415       -3.8243872987        0.5837615755
 H        -6.3222315283       -1.7166015474        1.0806260091
 H        -7.5573263460       -2.1018890586        2.3296166461
 H        -5.9972303829        2.2795603066       -0.9995227671
 H        -5.9871415333        3.6513714033        0.3308393467
 H        -8.1935337863        4.2230012948       -1.3597060893
 H        -6.9566147023        3.6161077015       -2.5438519366
 H        -9.5931019203        8.3035419701       -3.1684265066
 H        -7.9559015109        8.3769668738       -4.0870463564
 H        -7.2088116025       10.0918117767       -2.5180110718
 H        -8.7050524028       10.1122661919       -1.5980601149
 H        -5.8165083954       11.2153835228       -7.0139932873
 H        -7.4594289582       11.6918851310       -7.6173937491
 H        -6.9736773011       10.1327042965       -7.9619582902
 H        -9.4048698522       12.0088819220       -6.8341020350
 H       -10.1087554738       12.4558221987       -5.3756978162
 H       -10.2863786938       10.8650103131       -5.9666014127
 H        -7.5582164139       13.0343083899       -3.8922103203
 H        -7.9681637377       13.3735342632       -5.7049794055
 H        -6.5531016857       12.4211494804       -5.1948697536
 H        -5.7655965437        8.4292308712       -3.1957272999
 H        -4.5925684404        7.1419529466       -2.6336742712
 H        -5.5512840444        8.1968865449       -1.5679629482
 H        -7.9845421906        5.4119107298       -3.8646089416
 H        -6.2856184988        5.5550988223       -4.3588037099
 H        -7.2784389946        6.8586476234       -4.6681999791
 H        -6.9630801729        2.3728775244        2.5283763740
 H        -5.3586590178        1.6333304062        2.7737037876
 H        -6.7974360324        0.7369804966        3.0809840969
 H        -4.8489769855        1.2627965468        0.1509468062
 H        -5.8740894209        0.0398864162       -0.7480813637
 H        -5.0131126322       -0.3602103496        0.7409238983
 H       -11.6279415553       -4.3173138760       -1.9355667775
 H       -11.6527555108       -4.2569177798       -0.2989708042
 H       -10.1262577192       -4.6926435112       -1.0824615872
 H       -10.2865614299       -2.4475922820       -3.3504007771
 H        -8.7286740386       -2.2412777929       -2.4523280640
 H        -9.9786026520       -1.0636866566       -2.4234130655
 H       -14.4403653715       -1.0315124105        3.4040756950
 H       -15.8837957726       -1.3030326352        2.4933353153
 H       -16.0873673883       -0.3479063141        3.9361908443
 H       -16.6486764252        1.9208327274        1.6106578656
 H       -16.9402628215        0.2172016943        1.2369800212
 H       -15.7042928211        1.1444504530        0.2980474164
 H        -9.5162042959        3.6842718806        1.8236725098
 H        -8.7246131814        4.3480280371        3.1278928414
 H        -9.6676942904        5.4180841806        2.0294270033
 H       -11.1984738957        5.5256792123        4.9840780777
 H       -12.3386645341        6.0973348660        3.6188301001
 H       -10.7348151686        6.5248263427        3.5682686640
 Na      -10.6305192208        1.7306086786        1.1657403019
