117

 C       -16.9852689919       -4.3061135647        2.7654189712
 C       -15.7285389457       -3.4012570943        2.7991902170
 O       -15.6013426209       -2.7009196727        3.7428666183
 C       -14.9425991268       -3.1878733947        1.4741220584
 C       -13.4223843805       -2.5325109691        1.6178272718
 O       -12.7010287558       -2.6909934334        0.6678982647
 C       -13.0497149028       -1.6880308974        2.8658096592
 C       -12.4161641015       -0.3251323484        2.4937967501
 C       -10.7703429976       -0.3691738328        2.2899294839
 O       -10.0716085430       -1.0496716539        3.0046820227
 C       -10.1250466489        0.4860048160        1.0863112086
 C        -9.3400558259        1.6260651809        1.8254836732
 O        -9.9324008738        2.6568194005        2.1194677671
 C        -7.8325238023        1.4192230048        2.2348769655
 C        -7.2310786540        2.6159827032        2.9750243742
 C        -7.5842695423        3.9798199369        2.2838272261
 O        -7.1911167129        4.1491929454        1.1121679009
 C        -8.4475092592        5.0152754851        3.0914399114
 C        -9.7386532237        5.4672114315        2.0500588319
 O        -9.5559086177        5.9348077039        0.9586360873
 C       -11.1195901715        5.4632141620        2.6432337333
 C       -12.0120563777        6.5769884743        2.0547935293
 C       -12.2122855126        6.2650515095        0.5333441282
 O       -12.6720579465        5.1864243135        0.1565817049
 C       -11.9261683756        7.3478762855       -0.6585077481
 C       -10.7514111196        6.7259487048       -1.5849081017
 O        -9.5983198362        7.0799125984       -1.4032089762
 C       -11.0558825661        5.6118192014       -2.6816872506
 C        -9.8811351823        5.1427842140       -3.5741693564
 C        -8.7155910160        4.3447075364       -2.9522563107
 O        -8.5718301025        3.9447091459       -1.7942865645
 C        -7.7388751163        3.8212494480       -4.1327386727
 C        -7.1471104073        4.9643899413       -5.1670982718
 O        -7.9011893820        5.4483730627       -5.9394319466
 C        -5.6355476586        5.4434738725       -5.1988782351
 C        -5.4847434609        6.8245419468       -4.6511675462
 C        -5.8572572326        6.9810685544       -3.1912520945
 O        -6.5113377138        6.1557388582       -2.6176674078
 C        -5.8432744726        8.5007456285       -2.5280013940
 C        -5.3989128360        8.1842901192       -1.0936590073
 O        -6.1954521750        7.7131189576       -0.2348441126
 C        -3.9261859240        8.5401357329       -0.6078298894
 C        -4.8047472558        9.4613844528       -3.1304897456
 C        -7.2754029001        9.0951916886       -2.7808203810
 C        -6.5721109440        3.0105472759       -3.4548634304
 C        -8.5019590296        2.7727137169       -5.0042750325
 C       -13.2496688602        7.4303670192       -1.3819850066
 C       -11.5096013752        8.6971212949       -0.0525837672
 C        -9.0546589343        4.6045280112        4.4258125904
 C        -7.4896893097        6.3090701827        3.0865204519
 C        -9.2878578753       -0.5512298625        0.2716528579
 C       -11.0949045998        1.1290986759        0.0833341315
 C       -14.9826013910       -4.4311692960        0.5426291972
 C       -15.6576575445       -1.8558782750        0.8472418887
 H       -17.6143290728       -4.0219279331        3.6407759679
 H       -16.7252838280       -5.4279555606        2.8927947161
 H       -17.6052869326       -4.2900750259        1.8736548351
 H       -12.4540776888       -2.3552201746        3.4767544231
 H       -13.9922620309       -1.4816674666        3.3251803675
 H       -12.5648991376        0.2742722956        3.3438532553
 H       -12.8864214713        0.1790107322        1.6703446575
 H        -7.1833055527        1.2550358495        1.3692845863
 H        -7.7259602048        0.4902364089        2.8368562828
 H        -6.1581281322        2.4510150791        3.0878852189
 H        -7.6142578944        2.6569696509        4.0041620394
 H       -11.0658374392        5.6755060824        3.7274388329
 H       -11.5281970996        4.4609427564        2.3972789295
 H       -11.5839501205        7.5306258774        2.2993523459
 H       -12.9672059409        6.5717338916        2.6069736125
 H       -11.8484981353        6.0006599876       -3.3125733590
 H       -11.3778616804        4.6736909226       -2.1841608829
 H        -9.4542589186        5.7966306703       -4.3149121894
 H       -10.4047042759        4.3961455474       -4.2278598344
 H        -5.4168544995        5.6172930215       -6.2456947840
 H        -4.9604588369        4.7080010041       -4.6770303875
 H        -6.1296856459        7.5826207323       -5.1582860087
 H        -4.4923458059        7.2257036350       -4.8617326643
 H        -3.0747926453        8.0963244318       -1.1506078862
 H        -3.8478423342        8.2809531218        0.3941437571
 H        -3.6885502519        9.6677029784       -0.6519074508
 H        -4.7262796924       10.3771204666       -2.5423981132
 H        -5.0359356519        9.7408435134       -4.1767800540
 H        -3.8259943804        9.0580461691       -3.0302284075
 H        -7.1072231392       10.1081152715       -2.9989659054
 H        -7.8881993280        8.8871847126       -1.9456876579
 H        -7.6903445191        8.6172136584       -3.6421620133
 H        -5.9713654552        3.5479041833       -2.7399744796
 H        -5.9011490259        2.6361988953       -4.1869288261
 H        -7.0157056896        2.2642282409       -2.8071209540
 H        -7.7764555593        2.0234369921       -5.4065910983
 H        -8.8523545548        3.2627771190       -5.9010893207
 H        -9.2881706434        2.4224669416       -4.4136889593
 H       -13.7322310422        6.4959559555       -1.6342535412
 H       -13.1783637964        7.9871332436       -2.3146928720
 H       -13.9971210512        8.0871033652       -0.9562658805
 H       -10.5657914977        8.5893162476        0.5606750375
 H       -12.2884420545        9.1088920200        0.6983318974
 H       -11.4025383112        9.4761767173       -0.8180087873
 H        -9.6140926457        5.5018126999        4.7808489707
 H        -8.3335081935        4.2574540146        5.1880292374
 H        -9.8074868659        3.7945540839        4.2595034349
 H        -7.6258235849        7.0246616701        3.8906104713
 H        -7.4767397442        6.8253646388        2.0937939358
 H        -6.4694133760        5.9955683540        3.2382930975
 H        -8.3616133772       -0.8634872613        0.7873601531
 H        -8.9518706343       -0.1460095765       -0.7249569248
 H        -9.7813445388       -1.4597821130        0.0194498071
 H       -10.3994260551        1.5772329856       -0.7272728314
 H       -11.6521437570        1.9137366108        0.6077131026
 H       -11.8088585434        0.5249775931       -0.3839633365
 H       -14.4615807408       -4.3458487343       -0.4015347937
 H       -15.9901929096       -4.6847132402        0.2641483505
 H       -14.4935420956       -5.2996086842        0.8866466434
 H       -16.5224278924       -2.2252797725        0.3084172467
 H       -15.0377942162       -1.2994304536        0.1213689455
 H       -15.9624261135       -1.1626526964        1.6378988942
 Na       -7.7798881001        5.9103919970       -0.4950291214
