117

 C       -12.1971659210        5.9526808414        1.2083707405
 C       -11.9233860537        4.5574913925        1.7504066024
 O       -11.8482083863        3.5680973180        1.0062962187
 C       -11.1496948268        4.5338179586        3.0287415752
 C       -11.3414073308        3.2297922233        3.8952561757
 O       -10.5927566321        2.3036140827        3.8340269397
 C       -12.7580067350        3.0920374844        4.5912788931
 C       -13.4486023167        1.8283227851        4.0352456180
 C       -14.3886239716        1.9856114265        2.7721794114
 O       -14.6740061076        3.1010636479        2.4321614061
 C       -14.9211344133        0.6705722519        2.0316666905
 C       -13.7317460690       -0.0568217917        1.3462815952
 O       -12.6927922551       -0.1679701826        1.9627243689
 C       -13.9224722255       -0.6826790714       -0.0296660566
 C       -12.9735971046       -1.8458146993       -0.2412552913
 C       -11.4869486451       -1.5451197434       -0.5615977521
 O       -11.0771172580       -0.3908119435       -0.4639730933
 C       -10.4339112207       -2.6996467394       -0.9799312317
 C        -9.6349778273       -2.5880609796        0.3638041988
 O       -10.0703760423       -2.5678230916        1.4723533314
 C        -7.9872814269       -2.7793637708        0.1957712984
 C        -7.3175467423       -1.8601937811        1.3763902069
 C        -7.7890071174       -0.4151719522        1.3421877681
 O        -9.0012973432       -0.2779884955        1.5593871378
 C        -6.9086929103        0.8791143189        1.0434967524
 C        -7.4890302579        2.0285330833        0.2079564868
 O        -8.6580997987        2.3341591956        0.2099169970
 C        -6.3401038774        3.0051414945       -0.6423166694
 C        -7.1297866826        4.0193599350       -1.6276830724
 C        -6.7259750137        5.4648997211       -1.3490289044
 O        -6.1068981989        5.7299279643       -0.3979013852
 C        -6.8927026180        6.5393689942       -2.4611401143
 C        -8.1073107574        7.5625748939       -2.1322306750
 O        -8.5972874892        7.6014967035       -1.0464835564
 C        -8.4407824252        8.6971033067       -3.1720681677
 C        -8.4037274645       10.0501295279       -2.4965395294
 C        -8.9743006681       10.9864348841       -3.6133522260
 O       -10.0646893375       11.4710066061       -3.3292759026
 C        -8.3811532414       11.3547671400       -5.1127063994
 C        -7.5515072541       10.2971436891       -5.9836293702
 O        -7.3347919935        9.1330335081       -5.6983851071
 C        -6.9113431565       10.9189043304       -7.2428984070
 C        -9.5376005784       11.7154895601       -6.0792886421
 C        -7.4198165687       12.7345135819       -4.7685336183
 C        -5.6592425579        7.4519111351       -2.4342435968
 C        -6.9437200289        5.8557483642       -3.9727308543
 C        -6.4389127813        1.3827179417        2.4748613875
 C        -5.6306554407        0.3371505193        0.3514335221
 C       -11.1149874057       -4.0527728629       -1.1982873453
 C        -9.8557299367       -2.0763418719       -2.2134105526
 C       -15.4350858191       -0.4465549414        3.0016524026
 C       -16.2154295106        1.1106656718        1.1412456334
 C        -9.5898829792        4.4643859053        2.5393825365
 C       -11.5764270740        5.6638710301        4.0870362752
 H       -12.7887645676        6.6289786666        1.8234282938
 H       -12.6601483317        5.8765862760        0.1710969460
 H       -11.2067027162        6.4027281514        1.0468849949
 H       -13.2807790933        4.0136189073        4.2176907899
 H       -12.6485307315        3.1328279406        5.7487366900
 H       -14.0252595701        1.3235509581        4.8928237132
 H       -12.6900488801        1.1605021575        3.7919703271
 H       -13.6158955672        0.1347368908       -0.6315288859
 H       -14.9473696724       -0.7946632430       -0.3962850194
 H       -13.3641558083       -2.5846382319       -0.8819958965
 H       -12.7848457298       -2.3051861667        0.7322686038
 H        -7.7706353255       -2.5503020363       -0.8043244052
 H        -7.9401808292       -3.8047160936        0.3776597971
 H        -6.2250287308       -2.0904148963        1.3502011933
 H        -7.8829839055       -2.4057334173        2.1614239624
 H        -5.7178655265        2.3547031971       -1.1905959928
 H        -5.9760932170        3.4602524942        0.2942658924
 H        -8.2387197869        4.1647607525       -1.4322996127
 H        -7.0366667540        3.7543034333       -2.7283544133
 H        -9.4983997313        8.4715663976       -3.4234031758
 H        -7.8212579886        8.6783764677       -4.0616419161
 H        -7.3743416780       10.1975183612       -2.2523652713
 H        -9.0685454687       10.2834708445       -1.6695025916
 H        -5.8973721661       10.9566739360       -6.9824968055
 H        -7.4679170573       11.8052305197       -7.6419473740
 H        -7.0896151418       10.1594335672       -7.9794805692
 H        -9.1443767598       11.6546096328       -7.0481193142
 H       -10.0633558116       12.6289693414       -5.8582645393
 H       -10.1768701976       10.8861226575       -5.9639932807
 H        -7.3666300322       12.4686304386       -3.7301306800
 H        -8.1266714298       13.4012933022       -5.0324508201
 H        -6.5734831879       12.6893520396       -5.4643517292
 H        -5.6250818941        8.1077598060       -3.2751727445
 H        -4.6808808729        6.8273602403       -2.5847643532
 H        -5.4858959033        8.1639975239       -1.6296126314
 H        -7.3318606953        4.7963345444       -4.0096249028
 H        -6.0079229584        5.9999923942       -4.6101038609
 H        -7.6512948003        6.3639933193       -4.5360431294
 H        -6.2075852808        2.5251157347        2.3861422706
 H        -5.6462150507        0.8545581675        2.9605239098
 H        -7.3643858098        1.2269198520        3.1335554954
 H        -4.8504118584        1.0622341069        0.3701519282
 H        -5.9618076437       -0.1252397119       -0.6475038795
 H        -5.3222974944       -0.4177943109        1.0591654853
 H       -11.8138746021       -3.9460765300       -1.9969270166
 H       -11.7335203905       -4.3005978938       -0.3812937611
 H       -10.4477999362       -4.7433973945       -1.4979045890
 H       -10.5058594374       -2.2183636370       -3.0550425908
 H        -8.9049868743       -2.5180133677       -2.4225603175
 H        -9.6920012622       -0.9794434764       -2.1493447641
 H       -14.8370515885       -0.5189943571        3.8848021328
 H       -15.4505708352       -1.4151145189        2.5688938575
 H       -16.3904416636       -0.0692601263        3.1410590732
 H       -16.6149169328        1.9499068628        1.6465719815
 H       -16.8809483618        0.3166550525        1.2924088747
 H       -15.8481695965        1.1959619794        0.0759925751
 H        -9.5041198292        3.9103850583        1.6180215760
 H        -8.9637569169        3.9184665540        3.2251796066
 H        -9.2081466858        5.5363086506        2.3809735424
 H       -11.0329913030        5.6055615723        5.0221910911
 H       -12.6473860008        5.7267892662        4.1377314768
 H       -11.4347716774        6.6309682275        3.6342060729
 Na      -10.6630995431        1.5499526923        1.2783241083
