117

 C       -16.2639062862       -4.4073493827        3.2299065195
 C       -15.5795305533       -3.0262707476        3.2071120990
 O       -15.5862712639       -2.2713216492        4.1381589951
 C       -14.9076017790       -2.6290881212        1.8218140651
 C       -13.3167089083       -2.1875897161        1.9230525700
 O       -12.4784058009       -2.7885733121        1.3009233441
 C       -13.0270410151       -1.1528330840        2.9723078062
 C       -12.3427939500        0.1023216104        2.4728701643
 C       -10.9455048499       -0.2024242500        1.8926037138
 O       -10.2850670598       -1.0714086152        2.4080799081
 C       -10.3901604293        0.5599428915        0.7000293227
 C        -9.6307670793        1.7663444665        1.5078737093
 O       -10.2843458058        2.7049540431        1.8922871561
 C        -8.2192441884        1.3936454202        2.0116107155
 C        -7.7346412967        2.5334280324        2.9255286767
 C        -7.7618722540        3.9264181062        2.2169625468
 O        -7.0919018361        4.1681412539        1.2224287454
 C        -8.5343396197        5.0806537967        2.9460213099
 C        -9.8081092920        5.5398504246        2.1378486921
 O        -9.6761516971        5.9913270508        0.9841889622
 C       -11.2549685632        5.6135571839        2.7350262918
 C       -12.1776993582        6.4031639911        1.8776867495
 C       -11.9563486836        6.0026105516        0.3753988547
 O       -12.1904379506        4.8984895648       -0.0190716673
 C       -11.7240401835        7.1330617113       -0.8536622400
 C       -10.5772340055        6.6354461833       -1.7699474014
 O        -9.4626112836        7.1694440309       -1.7053368262
 C       -10.9319630221        5.5049592081       -2.7175436022
 C        -9.8500980314        4.9244897967       -3.6476170702
 C        -8.6811225294        4.1118308925       -3.1012413974
 O        -8.2497145609        4.0778490274       -1.9454515304
 C        -7.7617832965        3.4216885443       -4.1903750962
 C        -7.0668790557        4.7460906231       -4.8357418807
 O        -7.7235731203        5.6093570183       -5.4234450844
 C        -5.5648522384        4.9308764306       -4.6895439196
 C        -5.2299657758        6.3434005644       -4.4170807139
 C        -5.8150161588        6.7473221228       -3.0959068305
 O        -6.2654452009        5.8638882942       -2.3369458541
 C        -5.7597974353        8.2590284872       -2.5961376483
 C        -5.6766677809        8.2734272007       -0.9610275456
 O        -6.2806047767        7.5154664341       -0.2391433048
 C        -4.7063864190        9.3037993837       -0.3383088930
 C        -4.5683639547        8.9816971705       -3.2423002138
 C        -7.0884320407        8.8141620825       -3.0842233706
 C        -6.7496528020        2.3248954347       -3.7621490440
 C        -8.6229343068        2.8586174797       -5.3979046004
 C       -13.0752598328        7.3126853028       -1.5725745847
 C       -11.3601345193        8.4527059040       -0.1745846890
 C        -9.0405665381        4.7843479007        4.3627755478
 C        -7.5084282554        6.2665804883        3.1396583618
 C        -9.4524237198       -0.3099099566       -0.0372040221
 C       -11.5221480490        1.1895943359       -0.1369517370
 C       -14.9186249714       -3.7528447532        0.7222932603
 C       -15.6553718629       -1.3407208385        1.2528335261
 H       -16.2248010458       -4.8453393159        4.1988330883
 H       -15.8580201049       -5.1660800870        2.6011089876
 H       -17.3152711228       -4.2645776751        2.8333368347
 H       -12.4247998356       -1.7137716212        3.7148458978
 H       -13.9990337425       -0.9167779238        3.3978539744
 H       -12.1237947943        0.8089917044        3.4115520585
 H       -12.9046676560        0.6822078336        1.8244832563
 H        -7.5550364319        1.2505982535        1.1262906168
 H        -8.3434041105        0.4142682486        2.5418485993
 H        -6.7158698543        2.3827270178        3.1333581884
 H        -8.3184688618        2.4736121147        3.8456950869
 H       -11.2193092004        6.0607097370        3.7083997382
 H       -11.6073021711        4.6166254498        2.8686825232
 H       -11.9935730064        7.5333261729        2.0572665743
 H       -13.2214669357        6.0854265356        2.0688589299
 H       -11.6511873762        5.9984930393       -3.4235551543
 H       -11.3399110583        4.7225576131       -2.0844859638
 H        -9.4061234761        5.8221847087       -4.1003642729
 H       -10.2623663657        4.3557023875       -4.4376384736
 H        -5.0441349471        4.5258644222       -5.6092659639
 H        -5.4027832954        4.3480132728       -3.8804136593
 H        -5.3882404726        7.1213716859       -5.2036713751
 H        -4.1744795676        6.4936859300       -4.0806961417
 H        -3.6730178724        9.2311864379       -0.7120325197
 H        -4.7143936346        9.1518303459        0.7360543182
 H        -4.8941034479       10.3541277459       -0.5418487862
 H        -4.7730229902       10.0433250333       -3.0640571406
 H        -4.6269738506        8.8117960039       -4.3149805556
 H        -3.6033787568        8.6759655853       -2.8081386989
 H        -6.9829869582        9.8735519354       -3.0384994066
 H        -7.8698443422        8.4279629666       -2.4643585287
 H        -7.1928971064        8.4735575567       -4.0703423039
 H        -6.0891150126        2.5326757209       -2.9209019893
 H        -6.1163318865        2.0316365731       -4.5937551914
 H        -7.2656787888        1.4061635857       -3.5996528758
 H        -7.9809862303        2.2228786983       -5.9029918181
 H        -9.0716923440        3.6589182305       -5.9123297255
 H        -9.3571395292        2.1506357179       -5.0070771014
 H       -13.5363027437        6.4039002209       -1.9705556524
 H       -12.9157798811        7.7523885821       -2.5504263264
 H       -13.9068986082        7.7218046539       -0.9832439638
 H       -10.3614695993        8.4446234991        0.3633852567
 H       -12.2060284635        8.8682381876        0.3907191462
 H       -11.0672473670        9.1802477103       -0.9370895796
 H        -9.4478895266        5.6285897576        4.9253125953
 H        -8.1890183117        4.5041783351        5.1109563768
 H        -9.6850125209        3.9553655409        4.3105252919
 H        -8.0129073632        7.0358259220        3.7016640638
 H        -7.2244824673        6.7667326386        2.2122498508
 H        -6.6185588405        6.0297626939        3.7413690654
 H        -8.5426666597       -0.4867675857        0.4434860442
 H        -9.0849558639        0.1143950999       -0.9767105382
 H        -9.9591803164       -1.2909340604       -0.2691941536
 H       -11.1457027687        1.4727050077       -1.1227618805
 H       -11.8790724733        2.1295831362        0.3863444006
 H       -12.3829604918        0.4700331560       -0.3077235114
 H       -14.6675105510       -3.4272825781       -0.2594439171
 H       -15.8417978663       -4.2874087059        0.6123170241
 H       -14.2175409813       -4.5629443284        1.0070584037
 H       -16.6769205669       -1.6197967145        0.9797554267
 H       -15.1607567208       -1.0565964461        0.3487416639
 H       -15.6983792534       -0.5003663298        2.0011969725
 Na       -7.8483919620        5.8501755989       -0.4643898575
