117

 C       -14.7033900749       -4.0227228666        4.1386176925
 C       -15.4696782454       -2.8269241488        3.6219127062
 O       -16.1953698804       -2.2736532703        4.4303537327
 C       -15.0786379231       -2.2126200403        2.2634609049
 C       -13.4893246740       -1.9894889200        2.2540616995
 O       -12.8303940012       -2.6291542798        1.4625512947
 C       -12.9204831449       -0.9323072258        3.1995951097
 C       -12.4097254586        0.2461701697        2.4349643798
 C       -11.0683976477       -0.0414550228        1.7819900127
 O       -10.2060187260       -0.8374246319        2.1590814391
 C       -10.5820926479        0.8740172319        0.4886927596
 C        -9.7218325875        1.9187027156        1.1446810107
 O       -10.0605698187        3.0858700470        1.2799188530
 C        -8.3570930154        1.5429170556        1.6501032104
 C        -7.7538789934        2.5295136825        2.6314437896
 C        -7.8865964485        3.9225394783        2.0607688089
 O        -7.4957148596        4.0870527056        0.9396002991
 C        -8.4795944028        5.1279872052        2.8807072666
 C        -9.7456694535        5.7341315652        2.0856513676
 O        -9.6506793514        6.3477202292        1.0539122846
 C       -11.2148139690        5.8513590009        2.6875462646
 C       -12.1232965514        6.6015997300        1.7156529635
 C       -12.1628724096        5.9699289365        0.2666554147
 O       -12.7177886764        4.8833848089        0.1217541501
 C       -11.8219803108        6.7962624902       -1.0960775652
 C       -10.7485145498        6.1191989322       -1.9277183170
 O        -9.6328939027        6.6490332679       -2.0334889211
 C       -11.0810942723        4.8810528434       -2.7745891838
 C        -9.9912621878        4.5169234906       -3.8345703687
 C        -8.6855794717        3.9410709859       -3.3696381655
 O        -8.3219906310        4.0926864696       -2.2390581656
 C        -7.7135002955        3.2416885671       -4.4405949254
 C        -6.6781062380        4.4576885253       -4.6083528173
 O        -6.9978803978        5.4788843307       -5.1333553215
 C        -5.2250217764        4.3488521047       -4.0045927122
 C        -4.5670625641        5.6809298070       -3.7500531183
 C        -5.3404366753        6.3163487914       -2.5088971237
 O        -5.7348292835        5.5862649944       -1.6153892697
 C        -5.5165541638        7.8679173233       -2.4835263379
 C        -5.8306084146        8.3781963486       -1.0005649655
 O        -6.6606346970        7.8738192375       -0.2588189059
 C        -5.1797203783        9.6772241954       -0.4985978566
 C        -4.2456542294        8.6516800021       -2.9748976474
 C        -6.7139807417        8.1914586858       -3.4256479126
 C        -7.1178536236        1.8837370803       -4.1589697933
 C        -8.4553240330        3.2974138015       -5.8034165070
 C       -13.1909483157        6.8571408570       -1.7540447616
 C       -11.4011827599        8.2496084885       -0.6905012955
 C        -8.9737720894        4.8046991196        4.2744473002
 C        -7.3690992692        6.2503074537        3.0830064315
 C        -9.7445402996       -0.0457874748       -0.4798236533
 C       -11.7673978779        1.6021722642       -0.2841245338
 C       -15.4423542823       -3.0737194114        1.0177027168
 C       -15.8043411043       -0.7584894262        2.2158118810
 H       -15.0389101345       -4.3127627403        5.1456829557
 H       -13.6039792238       -3.7596418043        4.0613257798
 H       -14.8499990750       -4.9085723993        3.5909096847
 H       -12.0853453879       -1.3476433438        3.7562666455
 H       -13.6027042402       -0.6176853995        3.9599301107
 H       -12.2398319071        1.1113617349        3.0287459058
 H       -13.1189337340        0.5289847846        1.6478374952
 H        -7.7536731535        1.4433703737        0.7483096467
 H        -8.3837923878        0.5494906085        2.0988010852
 H        -6.7281885100        2.2255569455        2.7614272654
 H        -8.2177419671        2.3575460065        3.6483817450
 H       -11.0906684692        6.4775975624        3.6171544398
 H       -11.5350040996        4.9287000607        3.1958033696
 H       -11.9272345640        7.6749001175        1.7046640578
 H       -13.1666053769        6.5270771393        2.0214380485
 H       -12.0404226508        4.9537818845       -3.3531059391
 H       -11.2316293175        4.0561708252       -2.0618159433
 H        -9.8061510706        5.4620792581       -4.4224454464
 H       -10.5100788800        3.7956927174       -4.4667368919
 H        -4.6624373632        3.7277163814       -4.7385198763
 H        -5.3119914977        3.6878205935       -3.1601072398
 H        -4.5658624424        6.3937789319       -4.5949838008
 H        -3.5584290999        5.6052319476       -3.3565888125
 H        -4.1075205069        9.6956360176       -0.3547825802
 H        -5.5578146336        9.9734020262        0.4318435669
 H        -5.4960195543       10.5915081732       -1.0723227347
 H        -4.5230067964        9.7148905803       -2.8511385108
 H        -4.0611108640        8.5035673166       -4.0647506447
 H        -3.3695357465        8.3347155485       -2.4124035245
 H        -6.5455129988        9.1998718450       -3.8672802359
 H        -7.6649077651        8.1404209834       -2.8499414484
 H        -6.6252249334        7.4263087949       -4.2262275742
 H        -7.1236408465        1.5015557242       -3.1261122324
 H        -6.0919803939        1.8245999643       -4.5237916173
 H        -7.7359025485        1.1199881760       -4.6117332961
 H        -7.6757906283        3.0990352616       -6.5842734138
 H        -8.6708938062        4.3335873321       -6.0141185569
 H        -9.2943564056        2.6148968798       -5.7583571725
 H       -13.6213257043        5.8960385597       -1.8307609059
 H       -13.0914482276        7.3006310969       -2.7081127933
 H       -13.8687971525        7.5693468252       -1.3313144701
 H       -10.5241055443        8.2389611893       -0.0857707976
 H       -12.1749876448        8.7537118003       -0.1007596371
 H       -11.2852850106        8.7758088695       -1.5751978340
 H        -9.4920131865        5.5972874039        4.7812131149
 H        -8.1173254167        4.4434457750        4.8216681824
 H        -9.7071883327        3.9574030943        4.2895787519
 H        -7.6868346980        6.9128802852        3.8505250441
 H        -7.3556450932        6.8761591232        2.1447965236
 H        -6.3667663935        5.9115153381        3.3065184584
 H        -8.9189024129       -0.4640478919        0.0351359894
 H        -9.4875517183        0.5143729462       -1.4168399815
 H       -10.2466663268       -0.9184292840       -0.8282732854
 H       -11.6246977824        1.4726292935       -1.3699369884
 H       -11.6937101582        2.6861408270       -0.0909302094
 H       -12.6867503285        1.2034095908       -0.0356881926
 H       -15.3343738647       -2.5124545916        0.0629330541
 H       -16.4658428389       -3.4853542718        1.0998191860
 H       -14.6971784213       -3.9058522741        0.9171329103
 H       -16.8380335304       -0.9869873459        2.3655920597
 H       -15.6934535353       -0.2311167493        1.2967072827
 H       -15.4848114281       -0.0894985255        3.0556674533
 Na       -7.8515729270        5.8926659410       -0.5088810789
