117

 C       -12.1524478006        5.9871820208        0.8854553803
 C       -11.7430228082        4.7518506742        1.7086831506
 O       -11.9716144784        3.6932452787        1.1797819363
 C       -10.9273385244        4.8370106583        3.1514708379
 C       -11.3753976131        3.4223869131        3.7316408570
 O       -10.5956767768        2.4459696644        3.6074764085
 C       -12.8533858648        3.0691568789        4.2924309154
 C       -13.4758618718        1.7101537922        3.8418210502
 C       -14.5279008993        2.0055475927        2.8418110219
 O       -14.7272954093        3.1414286080        2.5105296407
 C       -15.0211398988        0.7796123824        2.0365940782
 C       -13.7373651997        0.0177727600        1.3389080209
 O       -12.6145803240       -0.0671180559        1.8327051600
 C       -13.8972622853       -0.5194958187       -0.0539552609
 C       -12.9231222079       -1.6679320409       -0.1932247211
 C       -11.4685432168       -1.3084843219       -0.5000962822
 O       -11.0249801397       -0.2480785074       -0.2013806609
 C       -10.5006998749       -2.4883047255       -0.9565696522
 C        -9.5953419976       -2.6731509857        0.4835147900
 O       -10.1022525301       -3.0577984845        1.5274813914
 C        -8.0554552550       -2.6290368741        0.2278151964
 C        -7.4153883527       -1.9575947261        1.3827237863
 C        -7.8385685913       -0.5004052997        1.4829777996
 O        -8.9078934812       -0.2342553924        1.9918368409
 C        -6.8493707602        0.6799169566        1.0642071195
 C        -7.5492382226        1.8583193935        0.1555509865
 O        -8.7601787653        1.9002306465        0.2959064236
 C        -6.6014158917        2.8074199765       -0.6374582858
 C        -7.2681481814        3.8014520197       -1.5017342884
 C        -6.7425744365        5.2864193335       -1.4662145439
 O        -6.2446958096        5.4860253686       -0.3544812054
 C        -6.8264986328        6.3869677250       -2.4869109883
 C        -7.9760223241        7.5046418179       -2.0574119956
 O        -8.4555043944        7.5681726141       -0.9438449162
 C        -8.4328552719        8.4945574628       -3.2131096771
 C        -8.4574028374       10.0312259490       -2.8675662734
 C        -9.2018018670       10.9648268038       -3.9310343633
 O       -10.1584349835       11.6718966969       -3.7495227009
 C        -8.3712123990       11.2274180595       -5.2808031413
 C        -7.5043695755       10.2148502906       -6.1120853462
 O        -7.3877419641        9.0489413965       -5.8578697664
 C        -6.7050341564       10.7484401783       -7.3119220063
 C        -9.4896604581       11.8398299334       -6.3393634567
 C        -7.2826507533       12.4232372589       -4.7849105057
 C        -5.4888449387        7.2548361766       -2.3554531515
 C        -7.1055656488        5.9459777751       -3.9107861681
 C        -6.6482382609        1.4022825726        2.3875212255
 C        -5.4556534311        0.1905878066        0.5666422287
 C       -11.3636874220       -3.7095414003       -1.0857009716
 C        -9.6737479091       -2.0511200638       -2.2059633701
 C       -15.7178463936       -0.1007534921        3.1540783422
 C       -15.9076309700        1.3924336994        0.8423531912
 C        -9.3697746842        5.0590933941        3.0735030656
 C       -11.3897456651        6.0201881385        4.0190080155
 H       -12.0957721225        6.8795005703        1.5279070053
 H       -13.0108984974        5.9399995956        0.3292665936
 H       -11.3268295312        6.0828808452        0.1753678331
 H       -13.4918121753        3.8803540510        4.0366021346
 H       -12.6487669104        3.0260341378        5.3059688312
 H       -13.7681347391        1.1514041336        4.6998428954
 H       -12.6546487236        1.0165769169        3.3632205896
 H       -13.9126152783        0.2767886407       -0.8699053525
 H       -14.9491987285       -0.8640062156       -0.0919812114
 H       -13.2349815767       -2.3031724616       -1.0440784392
 H       -12.9261392594       -2.3064902009        0.6905923172
 H        -8.0115198999       -2.2632863512       -0.8015283740
 H        -7.8334272552       -3.7678277394        0.2459597822
 H        -6.4015411106       -2.1100703942        1.0707990456
 H        -7.6867754513       -2.5803525787        2.2338223765
 H        -5.9600648406        2.0588466261       -1.1773283081
 H        -6.1286613867        3.2236252536        0.2343833561
 H        -8.2493742959        4.1051417872       -1.1246353143
 H        -7.5077183818        3.4762160362       -2.4674448549
 H        -9.4340945155        8.2690787173       -3.4910491395
 H        -7.7720523715        8.1353577385       -3.9785714412
 H        -7.4109505129       10.4562386373       -2.8553671358
 H        -8.9550471439       10.1916877651       -1.8901309528
 H        -5.7750337802       10.1490204467       -7.0843470005
 H        -6.5876713287       11.7650069511       -7.2039340174
 H        -7.1904680752       10.5273732160       -8.3079907224
 H        -8.9231301424       12.0262350115       -7.3257495319
 H        -9.8503137763       12.7708269239       -5.8346054626
 H       -10.3821186668       11.1050871345       -6.3799758327
 H        -6.4870313398       11.7950640205       -4.6547264678
 H        -7.7363010942       12.8374689438       -3.8294548871
 H        -7.4147909636       13.0369141099       -5.6186095815
 H        -5.3604808904        8.1167881032       -3.0515001865
 H        -4.5589754207        6.8322098704       -2.6718719696
 H        -5.4371291465        7.6382720323       -1.3701764772
 H        -6.7502129709        4.9653495676       -4.1318399010
 H        -6.6712730630        6.6313771193       -4.5854238737
 H        -8.2392164463        5.8609387200       -4.1799492856
 H        -5.6322234082        1.3928849817        2.7165093667
 H        -7.2738496384        0.8116627420        3.1380360556
 H        -7.0086562381        2.4011495244        2.4731321222
 H        -4.8737671373        1.1559345640        0.4119357282
 H        -5.5866465971       -0.3632241463       -0.3208340201
 H        -4.8571613694       -0.3697482452        1.3273279540
 H       -12.0510602672       -3.6061011303       -1.9626183240
 H       -11.9430605838       -4.0707567891       -0.1987218546
 H       -10.6571165766       -4.4784964989       -1.5903386515
 H       -10.4169880296       -1.7593022731       -2.9989298583
 H        -9.1099687661       -2.9316829391       -2.6239746654
 H        -8.9935488055       -1.2143210322       -2.1640843497
 H       -15.0610027229        0.0248312348        4.0054643382
 H       -15.5135962157       -1.1556913600        2.9776720796
 H       -16.7863741294        0.2431871264        3.3552014741
 H       -16.7110465498        1.7567441525        1.4964341465
 H       -16.3372142132        0.6049495099        0.1678326868
 H       -15.2750458000        2.0610918820        0.3360273015
 H        -8.9006343355        4.6446710079        2.1505437058
 H        -8.9685923060        4.3874616790        3.8850464340
 H        -9.0553244734        6.0573156665        3.2848531993
 H       -10.8685773629        5.9226778329        4.9972820091
 H       -12.4935806742        5.9075184920        4.1997817417
 H       -11.3338628045        7.0754590243        3.7226641245
 Na      -10.6924306543        1.1423292342        1.6443123611
