117

 C       -14.1837661175       -3.9240694500        4.5723085643
 C       -15.1650022250       -2.7277130558        4.5332719794
 O       -15.6827718466       -2.3522256348        5.5796185619
 C       -15.5903971446       -2.0506174867        3.1373222942
 C       -14.2869718098       -1.4583824061        2.5224422815
 O       -13.9038468957       -1.6884012422        1.3709371132
 C       -13.4072792820       -0.6448685206        3.4575121298
 C       -12.5821998725        0.4296688090        2.7123572355
 C       -11.3931538650       -0.0935953540        1.9095668336
 O       -10.6124852414       -0.9894568097        2.2293510613
 C       -10.9377509404        0.8227208484        0.6175432382
 C       -10.0382954571        1.8936519723        1.2301792117
 O       -10.5237007299        2.9905492199        1.5059066854
 C        -8.4960165890        1.5936397596        1.5406160104
 C        -7.7972020703        2.7527093339        2.2436894775
 C        -8.1142295628        4.0874755594        1.6201440425
 O        -7.8642644182        4.2982134022        0.4128751968
 C        -8.6819395084        5.2647138635        2.5379102221
 C        -9.8195630628        5.9800275172        1.6615414973
 O        -9.6228533414        6.3313993933        0.5154703361
 C       -11.1941012094        6.2648060357        2.2478511253
 C       -12.0978998287        7.0265668027        1.2225883037
 C       -12.3141057325        6.0810468081       -0.0563844608
 O       -12.7054907867        4.9374000693        0.0972955155
 C       -12.1015808641        6.6454738526       -1.5371474778
 C       -10.7711427662        6.0391355641       -2.0685398009
 O        -9.8324898938        6.8071162951       -2.3093373167
 C       -10.6326055837        4.5988400026       -2.3709861475
 C        -9.7392796115        4.3423870084       -3.6007670421
 C        -8.2664864805        3.9653133392       -3.3653445245
 O        -7.7388384405        4.3023553898       -2.3238262577
 C        -7.3814415047        3.2942033693       -4.4733433252
 C        -5.9294504459        4.0020653238       -4.5801067816
 O        -5.7717716249        4.7598376189       -5.4940774101
 C        -4.9151363497        3.8071406650       -3.4328886288
 C        -4.0431627976        5.0968789796       -3.1112139911
 C        -4.8949645457        6.1336648941       -2.1802188211
 O        -5.5622644562        5.6355113987       -1.2839182439
 C        -4.9544022987        7.6863255427       -2.4708318037
 C        -5.5190178877        8.4842477948       -1.2981737073
 O        -6.5137302522        8.1020616420       -0.6248014212
 C        -4.9225873071        9.8169568940       -0.8907291273
 C        -3.5653716213        8.2642941005       -2.8012619489
 C        -6.0088994287        7.9268951257       -3.6231007379
 C        -7.2618853958        1.7961205866       -4.2589325515
 C        -8.0371167336        3.4721113131       -5.8868931470
 C       -13.2524648380        6.1728742196       -2.5306773914
 C       -11.9954888001        8.1952136367       -1.5926295916
 C        -9.1049916737        4.7900197630        3.9102754742
 C        -7.4490119291        6.2639011938        2.4394226893
 C       -10.2009552407       -0.1197534828       -0.3332292527
 C       -12.1555011600        1.3038953265       -0.0841065416
 C       -16.2750012144       -3.0101640498        2.1883569580
 C       -16.4659621830       -0.8202828476        3.3975116705
 H       -14.7306673984       -4.8536266930        4.7257333875
 H       -13.5667775760       -3.8544956860        5.4397991073
 H       -13.5085778274       -3.9929081595        3.7041834177
 H       -12.7073695970       -1.4256427518        3.8769138038
 H       -13.9529300091       -0.0748423443        4.2386250922
 H       -11.9978996783        1.1472161715        3.4046239804
 H       -13.1999396860        1.0368248328        2.2013805977
 H        -8.1143612275        1.2977902682        0.5775558553
 H        -8.4274609015        0.7362593538        2.1956338858
 H        -6.6574256354        2.6937162307        2.2845862195
 H        -8.2703295182        2.6939417825        3.2156234724
 H       -11.0607068514        6.8551532577        3.1882768720
 H       -11.7323680275        5.2851648433        2.4235616678
 H       -11.7981884169        7.9931573173        0.8647679233
 H       -13.0164511052        7.0377326685        1.7010120543
 H       -11.5960953853        4.1932055098       -2.5217238834
 H       -10.2345670220        4.0732409938       -1.4954907890
 H        -9.7743154237        5.2298769203       -4.2078133199
 H       -10.2802451488        3.6026504298       -4.2240061495
 H        -4.2790633659        2.9377058721       -3.5060330303
 H        -5.6301187285        3.6854274376       -2.5775067690
 H        -3.7420977411        5.6944410594       -3.9493433633
 H        -3.1206766127        4.8355793505       -2.6330112090
 H        -3.8322214714        9.9868246889       -0.5982574013
 H        -5.4897722322       10.1316300054       -0.0733707295
 H        -5.0060414209       10.5443351652       -1.6967468636
 H        -3.5344244655        9.2200852744       -3.2723734253
 H        -2.9153627793        7.7127557409       -3.4374170602
 H        -2.9765023732        8.2396152245       -1.8821330495
 H        -5.8882480374        8.9239461197       -4.0534790105
 H        -7.0373885127        7.7731820871       -3.2846884449
 H        -5.8670511665        7.2221436744       -4.4279281006
 H        -7.1145912431        1.5537505964       -3.2232888757
 H        -6.4227378518        1.3713884422       -4.7810182948
 H        -8.1964860191        1.3452628405       -4.5687715696
 H        -7.3464690201        3.3481415708       -6.6635942230
 H        -8.5109199838        4.4199338344       -6.1081421052
 H        -8.8195070593        2.7091577784       -5.9614927575
 H       -13.5240245224        5.1939797051       -2.1016645585
 H       -12.8125929218        6.0588744219       -3.5442082003
 H       -14.0470105990        6.9101016191       -2.6702261537
 H       -10.9695297332        8.5089322647       -1.1925085380
 H       -12.7604204368        8.6633939653       -0.9637174139
 H       -12.1525029101        8.4562068064       -2.6619580477
 H        -9.6142899756        5.5284068709        4.5184685165
 H        -8.1485762705        4.3625008128        4.3264314802
 H        -9.7922382289        4.0374517100        3.7408609419
 H        -7.7318967421        7.1760883425        3.0153766372
 H        -7.2574839892        6.5332016432        1.4010065324
 H        -6.5346764835        5.7328607604        2.7673268141
 H        -9.2217254765       -0.4216734002        0.0358494541
 H       -10.1455202608        0.3871636172       -1.2578605998
 H       -10.8680527021       -1.0515252676       -0.4682235508
 H       -11.9882177714        2.1395055829       -0.7675875535
 H       -12.9804648374        1.7670358356        0.5242471215
 H       -12.5823387339        0.4359797606       -0.6297875921
 H       -16.5161024785       -2.4664696463        1.3025153892
 H       -17.1189674490       -3.5152492950        2.6302258418
 H       -15.4701500015       -3.6841856789        1.9299426893
 H       -17.1413068892       -1.1076747927        4.2281204913
 H       -17.0880702185       -0.5113712516        2.5300146736
 H       -15.9756253617        0.0510297203        3.7371640141
 Na       -7.8476671890        6.1024028146       -0.8306901328
