117

 C       -14.7500735370       -4.3208411136        4.1521266241
 C       -14.6015522232       -2.9383289307        4.8647994593
 O       -13.5699053208       -2.6778141006        5.4397547147
 C       -15.7979225633       -1.9140178795        4.5967775045
 C       -15.1077270835       -0.8555129408        3.7217134195
 O       -15.2910686910       -0.7682004729        2.4724555288
 C       -14.2049214529        0.2174793771        4.4274718280
 C       -13.4670921791        1.1291767712        3.4672586511
 C       -12.2594488576        0.4611154240        2.8132028986
 O       -11.6649389885       -0.4000810402        3.4326953327
 C       -11.6372920043        0.9649589774        1.4524979084
 C       -10.5938638855        2.0396872137        1.8641652966
 O       -10.9212554382        3.2110539880        1.8097355285
 C        -9.1682259891        1.6788222148        2.2039328858
 C        -8.5246654084        2.9668154306        2.7468885806
 C        -8.6500188907        4.0857177046        1.6849310152
 O        -8.2008970045        3.8271006479        0.6077185786
 C        -9.1195968021        5.5665636402        2.1377852173
 C       -10.0434531754        6.0416251602        0.9853638792
 O        -9.5114874146        6.4040964953       -0.0478575583
 C       -11.4974183872        6.3850963152        1.1633089884
 C       -12.0724167622        7.0958499581       -0.1266518157
 C       -12.0025962712        6.2229706785       -1.3364106032
 O       -12.3564445363        5.0593812236       -1.1974318383
 C       -11.4120577530        6.6317441835       -2.7026477204
 C       -10.0538953700        5.8950100767       -2.7781671354
 O        -9.0079986410        6.5356009528       -2.7405722840
 C       -10.0233612713        4.3764347052       -2.8103260186
 C        -9.3246973501        3.8679619272       -4.1099334045
 C        -7.8323689730        3.8288740372       -3.8639867482
 O        -7.3364677828        4.2773961074       -2.8623216983
 C        -6.8940275369        3.3074392722       -4.9552429267
 C        -5.5411324963        4.1382736453       -4.8414571927
 O        -5.4133606627        5.1220181560       -5.5066090311
 C        -4.4572790348        3.7254151744       -3.8284859986
 C        -3.6814280962        4.9336974944       -3.2075057493
 C        -4.6062941467        5.7684831937       -2.2291094394
 O        -5.0770992257        5.2042296036       -1.2455244902
 C        -4.8436970440        7.2628431513       -2.5306002220
 C        -5.3999027763        8.0218226572       -1.2524996365
 O        -6.3540938300        7.5976877684       -0.6857002911
 C        -4.6847765046        9.1723931413       -0.5853735359
 C        -3.6048560659        7.9933337795       -3.1468776844
 C        -5.9914762938        7.3335384196       -3.5212468612
 C        -6.6810569047        1.7117896406       -4.7555836041
 C        -7.4167562388        3.4027944438       -6.4874482058
 C       -12.3190522309        5.9549133243       -3.7481520513
 C       -11.2705208946        8.2154758267       -2.8534892003
 C        -9.9175177947        5.6545483539        3.4632984396
 C        -7.8071547470        6.3874482090        2.1877278604
 C       -11.0054180907       -0.2746342473        0.8135373564
 C       -12.6539683496        1.6429373600        0.4951940915
 C       -17.0564885516       -2.4996241699        3.7718422854
 C       -16.1761905212       -1.3661879601        5.9759536019
 H       -15.3453130499       -4.9181862360        4.8337865438
 H       -13.7747123016       -4.8071851271        4.0605690554
 H       -15.1845505312       -4.3113772410        3.1026374158
 H       -13.5792769915       -0.2238524713        5.2287221476
 H       -14.9515145907        0.7883898935        5.0334766548
 H       -13.0720354867        1.9481629013        3.9965349943
 H       -14.1751392547        1.4891097007        2.7346368030
 H        -8.6686996141        1.3687465084        1.2972776217
 H        -9.1586974146        0.8117871973        2.8507178223
 H        -7.4522345903        2.8630207061        2.8791467002
 H        -9.0561042673        3.3421030492        3.6763988389
 H       -11.7712009788        7.0684022632        1.9673383177
 H       -12.0514577374        5.4193218965        1.3266703968
 H       -11.6576323741        8.1054956943       -0.1105016440
 H       -13.1381808907        7.2882151252        0.2206794399
 H       -11.0054628646        3.9466721305       -2.6495451278
 H        -9.4993334279        4.0568342743       -1.9544584583
 H        -9.5259559543        4.5489024935       -4.9266923476
 H        -9.7591742370        2.8938869828       -4.3844963644
 H        -3.7792383449        2.9818251569       -4.3547314595
 H        -4.9348469076        3.2355982185       -3.0410665830
 H        -3.2082100895        5.4406805943       -4.0693877321
 H        -2.8603420208        4.6690786941       -2.5169754821
 H        -3.6192780980        9.0146309945       -0.5196135104
 H        -5.0282498507        9.4107143609        0.4097198342
 H        -4.6377161774       10.0697607744       -1.2380341016
 H        -3.9029377190        9.0522688696       -3.1499898963
 H        -3.4023271943        7.6514201000       -4.1805293320
 H        -2.8191767680        7.8686113469       -2.4316014755
 H        -6.1119453889        8.3557415707       -3.9154287561
 H        -7.0058634001        7.0888722547       -3.2273008075
 H        -5.7878960974        6.7076388754       -4.4197534020
 H        -5.7401154365        1.3709301384       -5.2320982785
 H        -7.6171410982        1.2093633630       -5.0181730241
 H        -6.6047831926        1.5362421159       -3.6848955697
 H        -6.4895772061        3.4968964370       -7.1136503052
 H        -7.9597976440        4.3226082996       -6.8189023293
 H        -7.9055930935        2.5294452580       -6.8715619332
 H       -12.3988357751        4.9090284247       -3.5813045128
 H       -12.0287858232        6.2478547394       -4.7157915954
 H       -13.2956241657        6.3684903660       -3.7524985460
 H       -10.8152365010        8.6277672875       -1.9648367457
 H       -12.2470761695        8.6918569815       -2.8214005873
 H       -10.6334213844        8.5779480493       -3.6801004621
 H       -10.3347683356        6.6826654881        3.6121187921
 H        -9.3119321234        5.6704438674        4.3552204324
 H       -10.7329832483        5.0223723416        3.5216749283
 H        -8.0270621026        7.4475283372        2.2844767563
 H        -7.0563300669        6.1404040120        1.4772913649
 H        -7.3653189286        6.1752024669        3.1867572877
 H       -10.5398836265       -0.8116654441        1.6069631015
 H       -10.3341299314        0.0138576005       -0.0217543129
 H       -11.6454167399       -0.9392217843        0.2789911228
 H       -12.0984309495        2.3605895354       -0.0909426329
 H       -13.4230403892        2.1266965194        1.0097080003
 H       -13.0614783171        0.9574228028       -0.2449978626
 H       -17.8643549667       -1.7205620487        3.8199171343
 H       -17.4412915525       -3.4418423197        4.2169054372
 H       -16.8169483909       -2.5512381249        2.7049064939
 H       -16.9940098297       -1.9037487911        6.4081101746
 H       -16.4428982191       -0.3334374518        6.0058528687
 H       -15.2662806283       -1.4504508660        6.6231506116
 Na       -7.5816145464        5.6760354834       -0.8960170106
