117

 C       -14.7450393644       -4.3562539048        3.9971035710
 C       -14.6538834443       -3.0016058247        4.8012213267
 O       -13.7483840130       -2.7262903561        5.5439526286
 C       -15.7221155349       -1.9182800490        4.6843623608
 C       -15.1096590426       -0.8283615826        3.7723383301
 O       -15.3197430083       -0.8806029663        2.5755882024
 C       -14.1612189111        0.2196290422        4.3998568968
 C       -13.5546314979        1.1591791998        3.3846241765
 C       -12.1742744301        0.5729675159        2.9138849329
 O       -11.6003053072       -0.2968457861        3.4615124036
 C       -11.6120814509        1.0358887569        1.4279629478
 C       -10.5639848741        2.1210774280        1.7421429082
 O       -10.9019559683        3.3175013137        1.8057509070
 C        -9.2089771787        1.6869078465        2.2189303255
 C        -8.5171442209        2.9486640987        2.8193467602
 C        -8.6995916822        4.1121911803        1.7593832816
 O        -8.2969295565        3.8874215739        0.6428596645
 C        -9.1454339459        5.5969142720        2.0932539330
 C       -10.0835548033        6.1990469633        0.9376518080
 O        -9.5983066758        6.4977476477       -0.1491392166
 C       -11.6427822414        6.3924662765        1.1559571229
 C       -12.1262446861        7.1857829434       -0.0772533729
 C       -12.0629921933        6.2067402124       -1.3029574742
 O       -12.4972212122        5.0642189673       -1.1919207184
 C       -11.4482766512        6.5735931282       -2.7128922550
 C        -9.9962767651        5.8589704702       -2.7367556090
 O        -9.0077387910        6.4970315135       -2.7122597135
 C       -10.0736877582        4.2972735469       -2.8439915883
 C        -9.3246757745        3.8695999798       -4.1389356379
 C        -7.8061142764        3.8109801902       -3.9665044227
 O        -7.3127788186        4.2381309934       -2.9616531665
 C        -6.7248537057        3.1701670410       -5.0575260449
 C        -5.4275862899        4.1002528712       -4.8904318112
 O        -5.4753467873        5.1416164189       -5.5078134646
 C        -4.3921109128        3.7394745980       -3.8708345400
 C        -3.6903277291        4.9388835203       -3.1936928168
 C        -4.5274348145        5.6788574927       -2.2084217151
 O        -5.0789169053        5.1501616943       -1.2853925164
 C        -4.8235746793        7.2857746466       -2.4680601040
 C        -5.3235050270        7.8973350695       -1.1521512994
 O        -6.3905530743        7.5851483006       -0.6767263043
 C        -4.6144974375        9.1393482475       -0.5759594819
 C        -3.5957351822        7.9995257872       -3.1008541603
 C        -5.9727581623        7.4262905658       -3.5027079030
 C        -6.5265265353        1.6701675676       -4.8172313818
 C        -7.2982791447        3.3257315329       -6.5294205611
 C       -12.4369712056        6.1371446443       -3.8837315601
 C       -11.2398287125        8.0613796301       -2.8636914475
 C        -9.8785301499        5.7441618130        3.4000933325
 C        -7.8325474170        6.3958752673        2.1023638004
 C       -11.1051827737       -0.2944970211        0.8431179181
 C       -12.7580048984        1.6688823781        0.5318211557
 C       -17.0097458896       -2.3739515242        3.9771946180
 C       -16.1164834919       -1.3326393754        6.0934026339
 H       -15.2867253641       -5.1190765963        4.5257349945
 H       -13.7234735318       -4.7122668858        3.8044548925
 H       -15.1229389630       -4.1893964874        3.0638466981
 H       -13.3965260918       -0.3953014485        4.8869404287
 H       -14.6198512563        0.6960546095        5.2420317883
 H       -13.3452710273        2.1161443832        3.9003978761
 H       -14.1607102508        1.3008078815        2.6072391802
 H        -8.6692916648        1.2043871288        1.3856654814
 H        -9.3692352397        0.8740108045        2.9314443514
 H        -7.4579995815        2.7871873465        2.9556218348
 H        -9.0138807004        3.2374323508        3.7306563635
 H       -11.9977196054        6.8628874413        2.0734977804
 H       -12.1323524471        5.4325298698        1.0900588825
 H       -11.4672250116        8.0864861387       -0.1120774666
 H       -13.1464622049        7.6228168722        0.2210874913
 H       -11.0885710280        3.8666153632       -2.7217498975
 H        -9.5483263393        3.9210438568       -1.9837021203
 H        -9.6601506693        4.5095444356       -4.9759358608
 H        -9.6265581170        2.8434439671       -4.3537881011
 H        -3.6323044799        3.2464999257       -4.4483448043
 H        -4.7693459428        3.0174519532       -3.0889678612
 H        -3.3517332360        5.5480344681       -4.0540978841
 H        -2.7202149678        4.6068013388       -2.6687978585
 H        -3.4848753136        9.2147153342       -0.6301958915
 H        -4.9026605067        9.4381056553        0.3739747881
 H        -4.8041027766        9.9044074139       -1.3200499989
 H        -3.8183467324        9.0627983522       -3.1000344694
 H        -3.5568889538        7.5956121300       -4.0842388108
 H        -2.7024530500        7.8491817411       -2.4992870220
 H        -6.3963361772        8.4308410845       -3.6058308418
 H        -6.8849764403        6.8360485159       -3.3720590226
 H        -5.6034840134        7.1353658824       -4.4915538155
 H        -5.9729986205        1.2273294655       -5.6363922206
 H        -7.4542975160        1.1758451713       -4.5437325359
 H        -5.9066705716        1.6038628010       -3.9025902989
 H        -6.5376714129        3.4012048451       -7.2687021758
 H        -7.8297466087        4.2725572606       -6.6642900174
 H        -7.9072597384        2.4679222455       -6.8509536046
 H       -12.6595290476        5.0895887911       -3.7002904196
 H       -12.0745733710        6.3504335494       -4.8700811030
 H       -13.3738852409        6.6208319892       -3.9260914188
 H       -10.7171818372        8.5433417639       -1.9759999152
 H       -12.1868509520        8.5817474536       -2.9373636320
 H       -10.5410864512        8.2985929238       -3.7246248757
 H       -10.0017717729        6.8214102423        3.6338764881
 H        -9.3447531177        5.4511104456        4.2886941256
 H       -10.8458294097        5.3289661016        3.4016078032
 H        -7.9769453035        7.4842888411        1.8958131748
 H        -7.0788351278        5.9098156133        1.5108613457
 H        -7.4255329042        6.4465991652        3.1391219678
 H       -10.4743974687       -0.7690841502        1.5761929089
 H       -10.6933579059       -0.1671542146       -0.0942300500
 H       -11.9039981658       -1.0382862572        0.5457178051
 H       -12.2848763433        2.1394256347       -0.3183888566
 H       -13.3456309602        2.4087354509        1.1727031737
 H       -13.4502658886        0.9335859020        0.0958584164
 H       -17.7990392652       -1.5587286511        4.0319012610
 H       -17.3919979267       -3.2941653243        4.4514880738
 H       -16.7960380014       -2.5141730996        2.9082959596
 H       -16.7654327027       -2.0041815554        6.6585810181
 H       -16.6413352354       -0.3661242813        5.9981808344
 H       -15.2268783592       -1.1527227545        6.6544306404
 Na       -7.4553523527        5.5114600650       -0.8094370824
