117

 C       -14.7291743695       -4.4218855436        4.5803559145
 C       -14.5640759019       -2.8847238514        4.7570033191
 O       -13.5261897388       -2.3905138475        5.1496949449
 C       -15.7685922419       -2.0084543920        4.3103236950
 C       -15.0767192295       -0.7488809033        3.5529999265
 O       -15.2722938638       -0.5887777579        2.3225684951
 C       -14.1827792994        0.3222329325        4.3152712646
 C       -13.2851434581        1.1299089425        3.3688583586
 C       -12.1950797819        0.2448835707        2.7044099941
 O       -11.8389662418       -0.8196785225        3.1506285082
 C       -11.5794690680        0.7987708182        1.3863987296
 C       -10.6663659073        2.0289636192        1.8324942207
 O       -11.1226257369        3.1528054530        1.9538931738
 C        -9.2568990638        1.6811567567        2.3010482996
 C        -8.2542669878        2.8111037351        2.6466624962
 C        -8.3749211006        4.1013286134        1.7057641954
 O        -7.9694978002        4.0433887054        0.5741131336
 C        -9.0339101278        5.4123741812        2.3728397904
 C        -9.9486784972        6.0751687095        1.2107926526
 O        -9.4161719997        6.2866204673        0.1326626714
 C       -11.5063421668        6.3379866156        1.3440609757
 C       -11.9857924474        6.9943042718        0.0561230145
 C       -11.9905950103        6.1037232747       -1.1621032178
 O       -12.3152403939        4.9170689328       -1.0246635881
 C       -11.6320496759        6.6791768065       -2.6239508656
 C       -10.1630825539        5.9818167378       -2.8360911703
 O        -9.2119005954        6.6824653279       -2.9571084751
 C       -10.0518776851        4.4804660047       -2.6252530979
 C        -9.3180368831        3.9245738812       -3.8334901345
 C        -7.8146027005        3.8662000433       -3.7149366000
 O        -7.2635062917        4.1135495755       -2.6686476387
 C        -6.9613456671        3.3927092066       -4.8922091282
 C        -5.5086469758        4.0573596975       -4.7930445396
 O        -5.1266213924        4.7147957744       -5.7430112250
 C        -4.6515909787        3.7044962356       -3.6724433000
 C        -3.9067624468        5.0235708182       -3.1953977750
 C        -4.7288961872        5.8945119117       -2.2071831480
 O        -5.2394950476        5.3685940144       -1.2438922956
 C        -4.9220862116        7.4591048697       -2.6124449672
 C        -5.4071289312        8.2293791625       -1.2821747838
 O        -6.3789243141        7.8382163689       -0.7141688351
 C        -4.5604609978        9.3077854341       -0.8031795426
 C        -3.4541259020        8.0019931888       -3.1476307418
 C        -5.9771155067        7.6989185710       -3.7345470018
 C        -6.9151799383        1.7893084558       -4.7159918969
 C        -7.5900097143        3.6843378174       -6.2424555170
 C       -12.5592146473        6.1092548912       -3.7432604860
 C       -11.5014960421        8.2545162083       -2.6160259795
 C        -9.8344269449        5.2750772343        3.7158030099
 C        -7.8259881349        6.4274646632        2.6055880101
 C       -10.7685134866       -0.3420902711        0.7525804241
 C       -12.6931386726        1.2102842546        0.4517362822
 C       -16.7646020483       -2.6362905008        3.3421062460
 C       -16.4063776490       -1.5185342665        5.5958563440
 H       -15.6170433029       -4.8739763521        4.9189128330
 H       -13.8911950026       -4.8456518337        5.1138467117
 H       -14.5124160866       -4.6364648823        3.5653088082
 H       -13.6217944122       -0.1694179450        5.0901881072
 H       -14.8490787413        0.9286542480        4.8934075124
 H       -12.7345748779        1.9092967243        4.0043256806
 H       -13.8545327276        1.6164253025        2.6675849565
 H        -8.8579508084        1.0906507167        1.4405552771
 H        -9.3941680223        0.9660750550        3.1326782208
 H        -7.2606381310        2.5070602499        2.4944908847
 H        -8.4052635853        3.1420257791        3.6640973695
 H       -11.7096242948        6.9561738152        2.2060124421
 H       -12.0457379684        5.4004052740        1.3527217488
 H       -11.4627514412        7.9421274624       -0.0514232507
 H       -13.0554458892        7.3822840284        0.1389551711
 H       -11.0136150160        3.9530039507       -2.3225550956
 H        -9.4002534740        4.3641519077       -1.7440034724
 H        -9.5904092853        4.4688536232       -4.7641111677
 H        -9.7003604047        2.9120933432       -3.9925867235
 H        -3.9071982753        3.0019592969       -4.0619599230
 H        -5.1697019059        3.1852230796       -2.8526597005
 H        -3.6510009039        5.5451905050       -4.1443312922
 H        -2.9350398211        4.6867459804       -2.7410021055
 H        -3.5568070957        9.0292208301       -0.3930547485
 H        -5.0191837182        9.8270269903       -0.0280616248
 H        -4.3529889645       10.0289098455       -1.6076437103
 H        -3.5731460879        9.0404810745       -3.4258221324
 H        -3.1865924301        7.5799602215       -4.1061522112
 H        -2.7369831415        7.7765007995       -2.3661242512
 H        -6.0281964890        8.7355620704       -3.9917764058
 H        -6.9820477264        7.3897908028       -3.5324718726
 H        -5.7734170112        7.1940878636       -4.6716250540
 H        -5.8944768071        1.5120101251       -4.8520351646
 H        -7.5445669646        1.4143266857       -5.4994232580
 H        -7.2554709006        1.4088039102       -3.7514594185
 H        -7.2821669528        3.0109708242       -7.0075846264
 H        -7.4210436596        4.6536721570       -6.6908747412
 H        -8.6411923739        3.5280775333       -6.1450016337
 H       -12.9205532386        5.0838194918       -3.4786740029
 H       -11.9976164619        6.1080700261       -4.7321975847
 H       -13.3624329213        6.8377426294       -3.9961973407
 H       -10.6527324707        8.7026356573       -2.0795827741
 H       -12.3237479265        8.7436849501       -2.1551856761
 H       -11.4516459014        8.5784174390       -3.6894014434
 H       -10.1974244239        6.3110585332        4.0428906585
 H        -9.2827140244        4.9471337080        4.6100898423
 H       -10.7179159075        4.7732209664        3.6000559068
 H        -8.1449003528        7.1735028318        3.3906151200
 H        -7.5439516788        6.9709950825        1.7173671995
 H        -6.9341031530        5.8240132417        2.8905073023
 H       -10.0599473933       -0.7864655192        1.4588967461
 H       -10.2438845775       -0.0131275972       -0.1428007498
 H       -11.4643112146       -1.2104430636        0.4791603825
 H       -12.4115884569        1.3491525184       -0.6041395857
 H       -13.0383119154        2.2385489967        0.7334588706
 H       -13.5336456905        0.4420464797        0.4908881973
 H       -17.3938769473       -1.8180507937        2.9821780594
 H       -17.3250886600       -3.3973694967        3.8161807174
 H       -16.2897502765       -2.9597927242        2.4706265306
 H       -16.5764548636       -2.3422121523        6.2891876015
 H       -17.4086065173       -1.0928331259        5.4520462576
 H       -15.8252589863       -0.7333882139        6.0912735768
 Na       -7.4884129568        5.7728747182       -1.1787207466
