117

 C       -11.7976981106        6.0274018080        0.9524874708
 C       -11.5598984889        4.7910052090        1.7422652051
 O       -11.6312379847        3.6549282189        1.2964064876
 C       -10.9604816112        5.0172462856        3.1931080032
 C       -11.1621624151        3.6666077694        3.7600257810
 O       -10.4516141548        2.7584249355        3.5172008145
 C       -12.4771583591        3.4346968870        4.5531517474
 C       -13.4860215709        2.3515405594        4.1069339565
 C       -14.4369136152        2.2765243214        2.8542944862
 O       -14.9150378785        3.3963901160        2.5404217159
 C       -15.0483849878        0.9791665097        1.8866104463
 C       -13.7795937119        0.1821719228        1.4244934356
 O       -12.8929773642       -0.0682303529        2.2019608774
 C       -13.8938886338       -0.3746434734        0.0148215186
 C       -12.9846217264       -1.4842352080       -0.4425686542
 C       -11.5152353447       -1.3104368763       -0.3507236828
 O       -11.1801036672       -0.1254735772       -0.5207501649
 C       -10.5139640975       -2.5010962562       -0.8444699545
 C        -9.5306341951       -2.9056640359        0.3047120122
 O       -10.0768275311       -3.5067681743        1.2227509069
 C        -7.9042319800       -2.6832229799        0.2322842686
 C        -7.2949410908       -2.0410824712        1.5684434361
 C        -7.7694264375       -0.5162846621        1.9222251611
 O        -8.8884962283       -0.2327118064        2.2680226137
 C        -6.7870033524        0.7467814359        1.3630979994
 C        -7.8078010216        1.6999811337        0.2291092765
 O        -9.0030715329        1.6657475572        0.1255714144
 C        -6.8110689563        2.7633968304       -0.6818495119
 C        -7.7001872431        3.8375655277       -1.3815553666
 C        -6.9294639288        5.1310088124       -1.2523578862
 O        -6.2468063264        5.3198905794       -0.2376916515
 C        -6.8919078404        6.2775140669       -2.3240873896
 C        -7.9983652442        7.3378896078       -2.0194632963
 O        -8.2928634625        7.5294007535       -0.8669518698
 C        -8.6371951099        8.2081568093       -3.1827637861
 C        -8.4471090093        9.6993294588       -2.9450404940
 C        -9.0638282411       10.6652258302       -4.1938719959
 O       -10.1403634996       11.2018064354       -4.0184750514
 C        -8.2187989601       11.3432334755       -5.4893368474
 C        -7.5099252825       10.1995858934       -6.2664108246
 O        -7.6412449033        8.9851997527       -6.0281497014
 C        -6.5244821029       10.5715073263       -7.5012605847
 C        -9.1557058378       12.0312992503       -6.5209579819
 C        -7.2219777184       12.4284210310       -4.9586031133
 C        -5.4973599715        6.8816349556       -2.4286252855
 C        -7.0991548100        5.6159692560       -3.7144358887
 C        -6.5734914598        1.7194603783        2.5222580006
 C        -5.4347100856        0.2629552774        0.6322418687
 C       -11.2083014292       -3.9855580074       -1.2424602454
 C        -9.8575386649       -1.9889862856       -2.1705845068
 C       -15.9371675758       -0.0446872578        2.6541264221
 C       -16.0145484125        1.5469493258        0.8385864172
 C        -9.3635447600        5.1770597718        3.1182595545
 C       -11.7142837251        6.1782083207        3.8572361185
 H       -11.4254209664        6.9174572928        1.4084812289
 H       -12.9513879843        6.0227320268        0.7655842720
 H       -11.4604253224        5.8243386653       -0.0779936578
 H       -12.9465997693        4.4248457967        4.7166263273
 H       -12.1121315849        2.9682569075        5.5299421363
 H       -14.1601752376        2.3467489145        5.0007074856
 H       -13.0400774261        1.4611436498        4.2377515270
 H       -14.0335715203        0.4547117220       -0.6136271178
 H       -14.8960754170       -0.7791617568       -0.0581462403
 H       -13.1315449067       -1.7304964603       -1.5145522005
 H       -13.3064806284       -2.3942028469        0.1428292950
 H        -7.8056579048       -2.1263519336       -0.6967979998
 H        -7.6455486521       -3.6260138813       -0.0579762111
 H        -6.2423214444       -2.2207385867        1.3556360506
 H        -7.6628518938       -2.6113991150        2.4768909749
 H        -6.6479566473        1.9711018193       -1.3607128282
 H        -5.8987542399        3.1078060727       -0.0752771490
 H        -8.7975234536        3.7728339636       -1.2831755010
 H        -7.6941372909        3.7308222130       -2.5189150703
 H        -9.7749278724        8.0402180491       -3.1295180948
 H        -8.2434102122        7.6765822156       -4.0682978632
 H        -7.4234160373        9.9744386470       -2.9914932492
 H        -8.9100892063        9.9914734900       -2.0125804763
 H        -5.9768178956        9.7111040565       -7.7833321744
 H        -5.8963227663       11.5100297827       -7.2332454442
 H        -7.2998712889       10.8228190305       -8.1535945096
 H        -8.5071180184       12.6159285466       -6.9988889426
 H        -9.8308375685       12.6164114242       -5.9799334218
 H        -9.5982347055       11.3647097410       -7.1377588542
 H        -6.2629305176       11.9879106790       -5.2476193240
 H        -7.3653815097       12.3889207717       -3.9464347391
 H        -7.7039911864       13.2269515406       -5.4401138841
 H        -5.3395879751        7.8290128942       -2.8715344238
 H        -4.8577190133        6.4830377952       -3.1790314874
 H        -5.0039818535        6.8610349698       -1.3986729661
 H        -6.2269453731        5.0130920356       -4.0050957668
 H        -7.1362319927        6.3080083943       -4.5854120591
 H        -7.9010750311        4.9496378469       -3.7124703496
 H        -6.2844665172        1.2768849874        3.4673763132
 H        -7.3622666327        2.3881176771        2.7286567245
 H        -5.7151440476        2.3271746987        2.1992011206
 H        -4.8340993572        1.0641744668        0.3410263240
 H        -5.7239531177       -0.3537032290       -0.2647967938
 H        -4.9360669081       -0.3551044199        1.3303651965
 H       -11.8123053319       -3.9417336199       -2.1617497999
 H       -11.8384467783       -4.2415366135       -0.4120899326
 H       -10.5253610335       -4.7529364470       -1.4370985472
 H       -10.4830840982       -2.1273534752       -3.0405048073
 H        -8.9603051820       -2.5431121938       -2.3748968063
 H        -9.4964396254       -0.9175932496       -2.1895714868
 H       -15.3550090656       -0.8706780784        3.1154379456
 H       -16.5720400405       -0.5455518100        1.9024304672
 H       -16.4226496568        0.5649048566        3.3661719657
 H       -16.8873916918        1.9483663907        1.3109625982
 H       -16.2945873378        0.7724205596        0.1767268504
 H       -15.2667718076        2.1204157471        0.2916582675
 H        -9.0934360157        4.1840647708        2.8036720587
 H        -9.0068035669        5.3753858263        4.1027840756
 H        -8.9208742165        5.9057237374        2.4460032905
 H       -11.6119979632        6.0931836970        4.9946800530
 H       -12.7932890297        6.1417447402        3.6446702559
 H       -11.3806141677        7.2214758053        3.7021302195
 Na      -10.5878046509        1.2631278840        1.8067590652
