117

 C       -14.7038500424       -4.4077440287        4.6688117900
 C       -14.4679141540       -2.8825273146        4.6760619073
 O       -13.4866286466       -2.4024461310        5.1917479985
 C       -15.6820196562       -1.8894515937        4.1902884508
 C       -15.0994718907       -0.7039585041        3.4600296589
 O       -15.2966047787       -0.5705138418        2.2608348043
 C       -14.1870034011        0.2343808755        4.2501868700
 C       -13.2723207681        1.0458921127        3.3838257781
 C       -12.2564565136        0.1848274183        2.6876474488
 O       -11.8647742070       -0.9328403009        3.0467149253
 C       -11.5690089134        0.7943266969        1.3655852812
 C       -10.6674347185        2.0033874230        1.8484430399
 O       -11.1962805721        3.0857979269        1.9170289062
 C        -9.1780089008        1.6964250053        2.2233939127
 C        -8.2343279500        2.8668397746        2.5979745987
 C        -8.4047767873        4.0807035072        1.7538353580
 O        -7.8980500207        4.1494022981        0.6630446732
 C        -9.1047155622        5.4043641625        2.3378416219
 C        -9.9122919624        6.0048490913        1.2485925093
 O        -9.3786960501        6.3385497923        0.1860244981
 C       -11.3937035389        6.2350446678        1.3586455598
 C       -12.0053028445        7.0418440902        0.1887620138
 C       -12.1244916527        6.1829853889       -1.0733171323
 O       -12.4037934932        5.0077761113       -1.0387075850
 C       -11.6581767406        6.6894331161       -2.4834042636
 C       -10.2418444379        6.0046176856       -2.6377511748
 O        -9.2506756663        6.6850386472       -2.9909360598
 C       -10.1642497426        4.4976425395       -2.6240957389
 C        -9.3728090185        3.8859987594       -3.8352964682
 C        -7.8454250997        3.8474757836       -3.6956907367
 O        -7.2450778388        4.0374368338       -2.6190284894
 C        -7.0210768391        3.2732653550       -4.9702903097
 C        -5.5107326384        3.9007971083       -4.8724377229
 O        -5.1331756087        4.5660089242       -5.8170024152
 C        -4.5381695514        3.6701563579       -3.6207876857
 C        -3.8216917116        5.0877906451       -3.1789418838
 C        -4.7588118498        5.9450972563       -2.3547071164
 O        -5.2092119741        5.4787639222       -1.2811637373
 C        -4.8818881880        7.4853733618       -2.6208248048
 C        -5.3266584014        8.3006228882       -1.3437933031
 O        -6.3661624183        7.9519294040       -0.8185654477
 C        -4.5453609135        9.4564148578       -0.7556820929
 C        -3.4730706577        7.9805033141       -3.0889274881
 C        -5.8869616137        7.7262465098       -3.6878415850
 C        -6.8823581929        1.7485204315       -4.8645211763
 C        -7.5350588701        3.6785036616       -6.3360340537
 C       -12.6208602053        6.0995935436       -3.4998883209
 C       -11.6191247285        8.1829315879       -2.4975496594
 C        -9.7960897790        5.2686096609        3.6868537110
 C        -7.8900775172        6.3546888400        2.6200248147
 C       -10.7459678475       -0.3948314611        0.7876354122
 C       -12.7241361048        1.1888081440        0.4036484140
 C       -16.5887897531       -2.5695776484        3.2131480781
 C       -16.4988877845       -1.5090787992        5.4715097177
 H       -15.6862574063       -4.5719089865        4.9920352592
 H       -14.0969271702       -4.7966311775        5.4049250731
 H       -14.5236309082       -4.9505087247        3.7149171497
 H       -13.6928937129       -0.3734760206        4.9778485376
 H       -14.7925754414        0.8761069787        4.8998243463
 H       -12.7931125337        1.7235796268        3.9548470303
 H       -13.8804901484        1.5928199721        2.6169070489
 H        -8.8121362986        1.1540205735        1.3583166910
 H        -9.1668986645        1.0086169511        3.0778450063
 H        -7.2059971667        2.6124546790        2.4761562859
 H        -8.4145629206        3.1539855208        3.6530724294
 H       -11.5233765086        6.7140953822        2.3043953824
 H       -11.9535147439        5.2970477706        1.2253333936
 H       -11.3381344955        7.9147062570       -0.0454705078
 H       -12.9812409699        7.6038836940        0.4108307005
 H       -11.1775171393        4.1084255311       -2.5009145389
 H        -9.6789428807        4.2329213467       -1.6862216663
 H        -9.6205920569        4.4034630544       -4.7585997316
 H        -9.7049331807        2.8380910166       -4.0209355449
 H        -3.7047203771        3.0130527878       -4.0404220986
 H        -4.8652554102        3.1816719127       -2.7721524073
 H        -3.4141163962        5.6199763450       -4.1042944600
 H        -2.9505453216        4.7503086258       -2.5527342199
 H        -3.6021717617        9.1788080533       -0.4200359510
 H        -5.0274038605        9.9378030398        0.1480548458
 H        -4.3858298098       10.2648080402       -1.4772991893
 H        -3.5497476120        9.0393753585       -3.2174597025
 H        -3.2256501323        7.6695409824       -4.1095163266
 H        -2.7526386748        7.6357396670       -2.3972626135
 H        -6.1342702511        8.7738199116       -3.8586665869
 H        -6.8159766501        7.1825263688       -3.5542451803
 H        -5.5869278841        7.3700817470       -4.6796797847
 H        -5.9343972640        1.4016040863       -5.3059429357
 H        -7.7338976063        1.3802466256       -5.4342915157
 H        -6.9407208032        1.4399993396       -3.8374484043
 H        -6.8962990835        3.1432673800       -7.0665757172
 H        -7.4361405027        4.7058895320       -6.6437469700
 H        -8.5289729497        3.3856931857       -6.5186093396
 H       -12.9049649899        5.0722953333       -3.3179436692
 H       -12.1361250869        6.1935695976       -4.4764774774
 H       -13.4693864636        6.8081570725       -3.5793160250
 H       -10.8580026123        8.5694253005       -1.8108973278
 H       -12.5589338624        8.6441176098       -2.0371604181
 H       -11.4596276557        8.6415697237       -3.5001971314
 H       -10.2525739209        6.1978021567        4.0377371686
 H        -9.1638971627        4.9326741496        4.4911296763
 H       -10.6669540034        4.5912291035        3.5967957504
 H        -8.1866305363        7.2082871849        3.2365872254
 H        -7.3936763127        6.7608531683        1.7082795442
 H        -7.1705209920        5.6479067088        3.0923899481
 H        -9.9577767392       -0.6950780647        1.4898862711
 H       -10.2124434440       -0.1619908726       -0.2039753278
 H       -11.3624579727       -1.2368003273        0.7122123931
 H       -12.5768794017        0.7708501369       -0.6440884477
 H       -12.8058374917        2.2368794029        0.2116548362
 H       -13.6797174150        0.7131978630        0.7691526106
 H       -17.2372597306       -1.8542439353        2.7151393328
 H       -17.1269917437       -3.3313989866        3.7826892419
 H       -16.0011078224       -3.0435633592        2.4234640834
 H       -16.5006061874       -2.3748741886        6.1192634498
 H       -17.5225802018       -1.3160684874        5.2734463654
 H       -16.1417505909       -0.6281453338        6.0703415230
 Na       -7.5583965876        5.9042014815       -1.0132048226
