117

 C       -14.7850778601       -4.0670167813        3.7544407351
 C       -14.7157235561       -3.0643838359        4.9393240426
 O       -13.8729324819       -3.0741840620        5.8094799007
 C       -15.7889123421       -1.9439598437        4.8621995814
 C       -15.1299942070       -0.8604051952        3.9023981263
 O       -15.2487750863       -0.8592418473        2.6687920738
 C       -14.1976532745        0.1740146146        4.4948221356
 C       -13.6365119156        1.1122581903        3.3946880852
 C       -12.2461142977        0.6447487800        2.8881333674
 O       -11.3881849532        0.2021501437        3.6406102697
 C       -11.7742917231        1.0726679641        1.4161753992
 C       -10.7453849952        2.1969550886        1.7386757313
 O       -10.9784574922        3.3673032305        1.5103372917
 C        -9.3177708115        1.8368010683        2.3411261675
 C        -8.7043907151        3.1618157352        2.8396669322
 C        -8.7837330643        4.2312689328        1.7459201237
 O        -8.3979202170        3.9449634931        0.6043735492
 C        -9.1832094615        5.6793528680        2.0963673923
 C       -10.0582955303        6.2525358693        0.9489448802
 O        -9.4153997919        6.4336092240       -0.0422973871
 C       -11.5848738598        6.4842231400        1.1466365601
 C       -12.2660744817        7.1013114547       -0.1397143970
 C       -12.2329072412        6.1392010867       -1.3643850671
 O       -12.7804406443        5.0791026731       -1.3630712232
 C       -11.4812058557        6.5186974446       -2.7950468097
 C       -10.1580682807        5.7060738621       -2.9071918466
 O        -9.0713506021        6.2981532395       -2.6909908833
 C       -10.0837905290        4.1763474566       -3.1381388563
 C        -9.1495305685        3.6587230370       -4.2582060565
 C        -7.5879996239        3.6760544643       -3.9519199173
 O        -7.1159142312        4.0648685734       -2.9055849610
 C        -6.6309130391        3.1687506727       -5.1202002359
 C        -5.4194683860        4.1115449379       -4.9694717989
 O        -5.3480145849        5.1558904903       -5.5691850085
 C        -4.3497564347        3.7002245209       -3.8894997801
 C        -3.6667322346        5.0482969753       -3.3769832602
 C        -4.5648529398        5.7825257435       -2.3236597163
 O        -5.0541243720        5.0300076989       -1.5034740310
 C        -4.8700958455        7.2878291549       -2.4528719304
 C        -5.2351956773        7.8680695832       -1.0196667607
 O        -6.2526453193        7.4500166297       -0.4971269644
 C        -4.4962831019        9.0826261205       -0.4999234747
 C        -3.5111556044        7.8958525384       -2.8777467945
 C        -5.9750972659        7.4644433149       -3.4957236009
 C        -6.2755059234        1.6309492893       -4.7887498230
 C        -7.2580700790        3.3043511703       -6.5484041851
 C       -12.4685034791        6.1823595603       -3.9086498060
 C       -11.0711869345        8.0800772403       -2.7813936444
 C        -9.7918626841        5.8500782937        3.4978248956
 C        -7.8684584611        6.5992798051        2.1020106454
 C       -11.0825551501       -0.0939728273        0.6395016941
 C       -12.9002432958        1.7241819633        0.5129251397
 C       -17.1954131021       -2.3795576032        4.3573184102
 C       -15.9641794878       -1.3408297010        6.2896824285
 H       -15.5204245052       -4.8073084598        4.0251692058
 H       -13.8842788471       -4.6051422906        3.5945795563
 H       -15.0641431770       -3.6002597146        2.7493998637
 H       -13.4690984105       -0.4252680634        5.0466029451
 H       -14.7503738016        0.7274682076        5.2766221738
 H       -13.5159938397        2.1054056899        3.8714174360
 H       -14.4326353344        1.1915783512        2.5103643947
 H        -8.7521535153        1.3010752958        1.5728523914
 H        -9.2781916035        1.1502422342        3.2152303734
 H        -7.6526730640        2.9191268441        3.0210007356
 H        -9.1882904505        3.4661419693        3.7974321954
 H       -11.6950439715        7.0049282533        2.1145172269
 H       -12.1470794767        5.5205816350        1.2913801957
 H       -11.7376033746        7.9978596352       -0.3425683262
 H       -13.2900702510        7.2925521386        0.0718056359
 H       -11.1179538416        3.9082267186       -3.3824112374
 H        -9.9122517595        3.6923656951       -2.1279273080
 H        -9.3531254075        4.3483022887       -5.0736238454
 H        -9.4961030066        2.6499768453       -4.5480016276
 H        -3.5364568385        3.0063792098       -4.2554573424
 H        -4.7655294186        3.2936394191       -3.0172509187
 H        -3.4600068998        5.6645121015       -4.2440711648
 H        -2.7344071324        4.7067346757       -3.0471082725
 H        -3.4566344031        9.0000421893       -0.4381764112
 H        -4.8892739750        9.3267364004        0.5198534978
 H        -4.5009202199        9.9363070925       -1.1895411098
 H        -3.6074227568        8.9569570775       -2.7597439341
 H        -3.2525421952        7.4226700085       -3.8302282690
 H        -2.8170037667        7.6522687940       -2.1000834187
 H        -6.4287476088        8.4238631274       -3.4156665943
 H        -6.8370134779        6.8606114448       -3.3690463361
 H        -5.6952378867        7.3287307700       -4.5217570440
 H        -6.3220193065        1.1293546080       -5.7674363689
 H        -7.0976523632        1.1798973700       -4.2221098599
 H        -5.3656043769        1.4680124424       -4.2554162456
 H        -6.7980014004        2.6041708945       -7.2768806287
 H        -7.1753837129        4.3132996554       -6.9379226209
 H        -8.2441619559        2.9450672926       -6.5192907476
 H       -13.0479165309        5.2464412215       -3.7861143495
 H       -11.9986217298        6.2682954261       -4.9250900712
 H       -13.2805377780        6.9771896586       -3.9986720636
 H       -10.1425079931        8.1663065734       -2.2665739618
 H       -11.8100203556        8.7817568587       -2.3229966603
 H       -10.8511099711        8.4804186772       -3.7511945062
 H       -10.0744086886        6.8733809334        3.8104062457
 H        -9.1496108113        5.4191055902        4.3059002392
 H       -10.7070608261        5.2319155522        3.5713602314
 H        -8.1005705298        7.6170048306        1.8508442166
 H        -7.0878949040        6.1541620409        1.4584861817
 H        -7.4586804517        6.7659666836        3.0930599666
 H       -10.1670624508       -0.4001046287        1.1427208768
 H       -11.0016456491        0.0848042042       -0.4892432825
 H       -11.6704710678       -0.9495239590        0.6234030752
 H       -12.8852748494        1.1933678121       -0.4792271391
 H       -12.8254142940        2.7663401456        0.4908683748
 H       -13.9050038811        1.5358068003        0.9252409506
 H       -17.8635195395       -1.5663678277        4.3149546335
 H       -17.6259412643       -3.1131089389        5.0199029251
 H       -17.0482262237       -2.8270706786        3.3870472874
 H       -16.0403631309       -2.1728459285        6.9917166960
 H       -16.8210888980       -0.7046309422        6.3989831628
 H       -15.0372481457       -0.8100936000        6.6469617545
 Na       -7.4263536791        5.3270272499       -1.0171097611
