117

 C       -15.0314780012       -3.8055917279        3.9895984276
 C       -15.1768983181       -3.4121420184        5.4669235266
 O       -15.1140628674       -4.2393750516        6.3609031648
 C       -15.3889207611       -1.9032010168        5.8573984000
 C       -15.3429048009       -0.8470494073        4.6289235128
 O       -15.9178599569       -1.1120365847        3.5776909819
 C       -14.5753524214        0.4890960414        4.7559528290
 C       -14.2628437464        1.0989457089        3.4018980235
 C       -12.8004806427        1.0519685649        3.0899001003
 O       -12.0021535232        0.6294700946        3.8569938508
 C       -12.2735687540        1.5589482898        1.6520373099
 C       -11.1656180701        2.5976581144        1.9164737579
 O       -11.3859333965        3.7091851093        1.5558547053
 C        -9.7428144779        2.3000266930        2.3774350247
 C        -8.9828648074        3.5884479627        2.7711556206
 C        -8.9057607797        4.5758715385        1.5677227651
 O        -8.4265571115        4.1726987012        0.5376856181
 C        -9.3529678987        6.1002846003        1.7669737144
 C        -9.9928806656        6.6076679429        0.4958058217
 O        -9.3221383214        6.6848124005       -0.5244279641
 C       -11.5258227308        6.6495907582        0.4005707018
 C       -11.9237403766        7.2542708623       -0.9823412193
 C       -11.9242011720        6.2782660304       -2.0866557425
 O       -12.4714162008        5.2021292738       -1.9855340324
 C       -11.1087932440        6.5098673994       -3.4836186227
 C        -9.9000325516        5.5655324603       -3.3343462534
 O        -8.7827360136        6.0815424983       -3.2100856735
 C        -9.9760252501        4.0663609886       -3.3135068406
 C        -8.9626880711        3.4274261315       -4.3907300274
 C        -7.5123841815        3.1705373635       -3.9403706194
 O        -7.1460222430        3.3420621815       -2.7882226112
 C        -6.4037417175        2.7077044724       -4.9269064926
 C        -5.2699587148        3.8631192332       -5.0522746033
 O        -5.3569945103        4.6945068346       -5.9055112176
 C        -4.0158557218        3.7988777210       -4.2042219033
 C        -3.6182460087        5.1743713851       -3.7676226468
 C        -4.4151010486        5.7667370529       -2.5976104480
 O        -5.1137821392        5.0561644311       -1.9396126326
 C        -4.4976964187        7.3501455693       -2.3068794401
 C        -4.9409693769        7.4191185570       -0.8126801834
 O        -6.0714365293        7.0060868426       -0.5261786465
 C        -3.9964040840        7.8436151202        0.2763430939
 C        -3.0918417854        7.9527455849       -2.4717853788
 C        -5.4721378111        8.0549867527       -3.2764519502
 C        -5.7550243507        1.3727254354       -4.4793468005
 C        -7.0008465023        2.3888532232       -6.3776524895
 C       -12.1015976708        6.3308729448       -4.6560808273
 C       -10.6594027481        8.0000787424       -3.6306020407
 C       -10.2938194416        6.3781249532        2.9269767802
 C        -8.0170862355        6.9213014997        1.9411786392
 C       -11.7005647708        0.3143267901        1.0603152009
 C       -13.4655392842        2.0760776510        0.8524690384
 C       -16.8322390636       -2.0519022845        6.3989749858
 C       -14.4662365402       -1.4467534852        6.9963863170
 H       -15.9148720402       -3.6689256639        3.4742707426
 H       -14.6657136863       -4.7983262302        3.8896365768
 H       -14.2740695928       -3.1820675075        3.5147221538
 H       -13.6854835415        0.3483792474        5.3448133817
 H       -15.2312649931        1.2066320156        5.2097259699
 H       -14.5606073958        2.0625966238        3.3732156458
 H       -14.9288983264        0.6045220782        2.6120068852
 H        -9.2416989846        1.9174815663        1.4602850762
 H        -9.7209232182        1.5383543305        3.1713545360
 H        -7.9461652448        3.3757606482        3.1308073753
 H        -9.5510264463        4.0982962481        3.5250405309
 H       -12.0319985478        7.1510018483        1.2613940916
 H       -11.9574512843        5.6709220014        0.5230661401
 H       -11.4147713539        8.1510459798       -1.2146525120
 H       -12.8979608978        7.6208505377       -0.8903116220
 H       -10.9979822147        3.8101716819       -3.5898099443
 H        -9.8115113409        3.7493993111       -2.2262596118
 H        -8.8495212766        4.1496016428       -5.2404476216
 H        -9.4852057937        2.5464689794       -4.7872729632
 H        -3.2281121464        3.3130373326       -4.7216625140
 H        -4.1406135888        3.1410610725       -3.2723945278
 H        -3.6296072805        5.7921973777       -4.6646215321
 H        -2.5894183937        5.1743368920       -3.3854549147
 H        -3.2278310055        7.1443549418        0.4877825571
 H        -4.4833192790        7.8679648273        1.2502542121
 H        -3.5954356182        8.8580963479        0.1415151958
 H        -3.0984887342        8.9018930993       -1.9608566763
 H        -2.9284582780        7.9850967933       -3.5390149141
 H        -2.2662367939        7.4772000002       -1.9827530611
 H        -5.9179765049        8.9650144690       -2.8063175453
 H        -6.4039845122        7.5111078869       -3.4924712087
 H        -5.0528022820        8.3844719511       -4.2418354865
 H        -6.3312934017        0.4528555613       -4.7085501446
 H        -5.6793799879        1.4016593691       -3.3732715776
 H        -4.7589756939        1.1765333987       -4.8434905420
 H        -6.2947675819        1.6960672192       -6.8835869433
 H        -6.9187971403        3.3599177457       -6.8484335686
 H        -7.9876705362        1.9378555220       -6.4100576588
 H       -12.9767913919        5.7805200421       -4.3972725077
 H       -11.6020642212        5.9446291806       -5.5230489769
 H       -12.4984349094        7.2388155187       -5.1026161955
 H       -10.0457598102        8.2765318077       -2.7712040551
 H       -11.6171802084        8.6270866122       -3.5451333191
 H       -10.1699182414        8.0904760222       -4.5853739810
 H       -10.7110493614        7.3665831793        2.8625486404
 H        -9.8225772431        6.1696261382        3.9342639031
 H       -11.1132374114        5.6928812590        2.7399878917
 H        -8.2426714272        7.9633639697        1.7898929133
 H        -7.1586040486        6.6080155371        1.2989267040
 H        -7.6769286350        6.9700641116        2.9649317286
 H       -10.7662511736        0.0149073107        1.5291718662
 H       -11.6570931050        0.3834850673       -0.0477392500
 H       -12.2827499369       -0.5327285471        1.0963588776
 H       -13.1636161557        2.8327662936        0.0624287313
 H       -14.3046436844        2.3468394452        1.4487411538
 H       -13.8047015319        1.2218021172        0.2324700997
 H       -17.3388582767       -1.0967736995        6.5461390587
 H       -16.8955206711       -2.6083896948        7.3724569961
 H       -17.3959218780       -2.6074598012        5.5987139719
 H       -14.4978792212       -2.2684315796        7.7134805239
 H       -14.8410668626       -0.5338048253        7.4806671352
 H       -13.4447875948       -1.3422444368        6.6550169918
 Na       -7.4939116103        5.1983149237       -1.3902340754
