117

 C       -15.1398895023       -3.8252729757        4.1344285966
 C       -15.2749732115       -3.4807544052        5.6217896376
 O       -14.8921387721       -4.2241577373        6.5099037285
 C       -15.4946387210       -1.9182123931        6.0108016413
 C       -15.3867080449       -0.9066925887        4.7601187601
 O       -16.0195328877       -1.1899667706        3.8023242122
 C       -14.5764762649        0.3956519553        4.8577874138
 C       -14.3383759716        1.0400645716        3.5176047706
 C       -12.8668886584        1.0208873334        3.1996927915
 O       -11.9783902915        0.5898385962        3.8692082835
 C       -12.4636373203        1.5597849712        1.7681553843
 C       -11.3334754194        2.6527374255        1.9248696175
 O       -11.5100540389        3.7440691668        1.4325664809
 C        -9.8910983042        2.4109418888        2.4588033943
 C        -9.1380737588        3.7277245312        2.7022196751
 C        -8.9354573470        4.5458124265        1.4344642540
 O        -8.3801682226        4.0633120193        0.4959484332
 C        -9.2394405491        6.1136047594        1.6198841766
 C        -9.9632160664        6.6609984534        0.3287130160
 O        -9.2377227245        7.0041123985       -0.6103527104
 C       -11.5094372661        6.7432276224        0.1860700169
 C       -12.0490796330        7.3307046494       -1.1496465521
 C       -11.9593359720        6.2808258609       -2.2742741988
 O       -12.8301854517        5.4517933182       -2.3700515534
 C       -10.9970791196        6.4843788904       -3.5501592481
 C        -9.7421317084        5.6097450027       -3.3251847258
 O        -8.6733051914        6.0835983939       -3.0051206300
 C        -9.8608411239        4.0772378757       -3.5007483472
 C        -8.8639802950        3.5557447121       -4.5236160492
 C        -7.4722037173        3.2833822218       -3.8314455756
 O        -7.3287185060        3.3031679030       -2.5958719522
 C        -6.3772619804        2.6303034460       -4.7918183634
 C        -5.1389510964        3.7503111564       -5.0556620954
 O        -5.2946795831        4.5198969965       -5.9573916932
 C        -3.8112103160        3.7110835746       -4.2963047345
 C        -3.5580985616        5.2032467993       -3.8549527547
 C        -4.4866649556        5.6335817626       -2.6782601112
 O        -5.3417093889        4.9125771088       -2.2535098816
 C        -4.3802769363        7.1915570738       -2.2801023125
 C        -4.8611279367        7.3474854395       -0.8461662690
 O        -5.9380843895        6.8901075864       -0.3981236551
 C        -4.0006683401        7.9454680238        0.2759565207
 C        -3.0968309283        8.0080518346       -2.5910682450
 C        -5.5958962585        7.8720334933       -3.0930428772
 C        -5.9217299304        1.3098824160       -4.1343966027
 C        -6.8795421173        2.3774912437       -6.3256074634
 C       -11.6783377460        6.0968628604       -4.8842961494
 C       -10.5852728715        8.0021826662       -3.7333915305
 C       -10.1757759296        6.4653261641        2.8019678975
 C        -7.8502527893        6.7982955625        1.8885643220
 C       -11.7324744538        0.4320131240        0.9324612714
 C       -13.5754843484        2.1966490269        0.9226249910
 C       -16.8737080917       -1.6497037846        6.6305941077
 C       -14.4431713180       -1.6823854962        7.0548345809
 H       -16.0605650455       -3.6961404486        3.5295766524
 H       -14.7513614992       -4.8433393388        4.0307982306
 H       -14.2760249343       -3.2050489923        3.6936747231
 H       -13.5896998241        0.2055046099        5.3460378960
 H       -15.1170289080        1.0708146474        5.5346175375
 H       -14.7368336325        2.0156495498        3.3354252675
 H       -14.9280852451        0.4501054061        2.6721261648
 H        -9.3764856428        1.8510173704        1.6535671121
 H        -9.8824895051        1.8229153793        3.3571946207
 H        -8.1197928519        3.6036382657        3.0974935676
 H        -9.6929559349        4.2180607093        3.4358557051
 H       -11.9691344496        7.3195247306        1.0241360356
 H       -11.9118431707        5.7480826378        0.3205177412
 H       -11.5486137136        8.3315052340       -1.3937360415
 H       -13.0624508527        7.7122231030       -0.9195267076
 H       -10.8941280373        3.9206401564       -3.8387168901
 H        -9.7928941380        3.5415270412       -2.5775905134
 H        -8.6502347138        4.3736910643       -5.2017915021
 H        -9.2702308297        2.7167736919       -5.0817373844
 H        -3.0276580119        3.3966323335       -4.9274457936
 H        -3.6849529260        3.0483071176       -3.3884426356
 H        -3.5838984053        5.9114675766       -4.6813098048
 H        -2.5044687995        5.1757493597       -3.3974065970
 H        -3.0108571800        7.5393197581        0.5062033859
 H        -4.5143779057        7.7526245860        1.2737610395
 H        -3.8331242572        8.9943558033        0.0853252865
 H        -3.1432559164        9.0441691508       -2.2476912332
 H        -2.8769690975        7.8653193885       -3.6490534104
 H        -2.2315711666        7.6786099840       -1.9891284522
 H        -5.5812686922        8.9572518168       -3.1098671500
 H        -6.5248845181        7.6345398549       -2.5846538181
 H        -5.7207289105        7.5237365039       -4.0890467235
 H        -6.5840317631        1.0037385734       -3.3344087157
 H        -4.9400454601        1.3678764112       -3.6389155999
 H        -5.7612080716        0.5015004649       -4.8378111058
 H        -6.0982236861        2.0404791655       -6.9816620885
 H        -7.3044824051        3.2756146636       -6.7231051797
 H        -7.5622421314        1.5082648533       -6.2396427893
 H       -12.0433247730        5.0824910620       -4.9028691594
 H       -11.0673738662        6.3815540884       -5.7593845135
 H       -12.6733281749        6.5477088572       -4.9659250502
 H       -10.1044544996        8.4820086682       -2.9118905928
 H       -11.5574604047        8.4538423018       -4.0096207449
 H       -10.0516918455        8.0628266700       -4.6316153288
 H       -10.2998710200        7.5024786259        2.7365109160
 H        -9.6796782470        6.1364970159        3.6943053555
 H       -11.1935338068        5.9837772103        2.7913061901
 H        -7.8438440131        7.8692426040        1.8344824000
 H        -7.1095918265        6.3094734124        1.2090701347
 H        -7.4864649358        6.6343782813        2.8723086644
 H       -11.1220233164       -0.2185991470        1.6016733751
 H       -11.1252394191        0.8350156602        0.1331017489
 H       -12.3502164287       -0.2587435964        0.3751926750
 H       -13.3712414745        2.0733728735       -0.1418259996
 H       -13.6154092565        3.2187778603        1.1727600038
 H       -14.5497502739        1.8563046237        1.1303444623
 H       -16.8117896761       -0.7918074898        7.2607829196
 H       -17.1747389338       -2.4499324858        7.2640287971
 H       -17.6496768663       -1.5634408118        5.8893101730
 H       -14.4099338063       -2.5385231064        7.7342478670
 H       -14.7122319442       -0.7227061391        7.5562764870
 H       -13.4697240541       -1.6574976574        6.6575673441
 Na       -7.5385690867        5.2726593507       -1.2302035833
