117

 C       -11.5582587227        6.0683885002        0.7125030690
 C       -11.2415655050        4.8129579401        1.5564576674
 O       -11.1644449695        3.7228113570        1.0326394125
 C       -11.0373687850        5.0253880180        3.0671221020
 C       -11.4425167069        3.5890011787        3.9368952673
 O       -10.5052328296        2.7765486181        4.0857509436
 C       -12.7953394227        3.4380224754        4.5969357080
 C       -13.6208425093        2.2059285222        4.0576914298
 C       -14.4687371175        2.5919645969        2.9192639630
 O       -14.7356173068        3.7140533952        2.7451607425
 C       -14.8969671710        1.3409299377        1.9994443692
 C       -13.7717062393        0.4323294425        1.4442875064
 O       -12.8320155113        0.1535823287        2.2039929375
 C       -13.8246980268       -0.1298321142       -0.0317080415
 C       -12.9965362034       -1.5154878238       -0.1877510750
 C       -11.5057970182       -1.3777587589       -0.4767638749
 O       -11.0803247313       -0.2933184049       -0.2950305943
 C       -10.5634073623       -2.5219331195       -0.9401913589
 C        -9.5564983744       -2.8486040026        0.2743920730
 O        -9.7857131813       -3.6598761785        1.0864563298
 C        -7.9877656109       -2.1934645670        0.1495526465
 C        -7.4466552610       -1.7996437948        1.5430603654
 C        -7.8960438809       -0.3935272060        2.0199713210
 O        -8.9620103023       -0.0884601226        2.6179739331
 C        -7.0001244603        0.7245011550        1.3306676264
 C        -7.8588461553        1.5763708452        0.2301041762
 O        -9.0487850393        1.5582477193        0.1669433232
 C        -6.9869750891        2.5260807114       -0.6566859917
 C        -7.8383133762        3.6965829285       -0.9852586089
 C        -7.0752661840        5.0533050574       -1.0966483242
 O        -6.3372429559        5.2118761732       -0.1981817627
 C        -7.0036723511        5.9668569927       -2.3835193043
 C        -8.0327814544        7.2241122871       -2.1784987639
 O        -8.2132449956        7.5766434889       -1.0485974310
 C        -8.7524136501        8.1450923941       -3.2975979332
 C        -8.0500138038        9.5159033148       -3.4222017646
 C        -8.9179962971       10.3881799102       -4.4710562390
 O       -10.1259006179       10.4549136054       -4.4015805557
 C        -8.0667210796       11.2232800155       -5.4480704784
 C        -7.3436909203       10.0392279753       -6.3249568418
 O        -7.8490167329        8.9724034266       -6.1061188182
 C        -6.5897703507       10.3958568153       -7.5371854847
 C        -8.9779546774       11.9579504720       -6.4198360723
 C        -7.0587092305       12.1495467287       -4.6887900731
 C        -5.6718646831        6.7209019252       -2.3670730295
 C        -7.1932142598        5.0984981564       -3.6374674779
 C        -6.8088391346        1.8069240479        2.5763696949
 C        -5.6497302498        0.2320916546        0.6481447455
 C       -11.2439681372       -3.8479911586       -1.3778354670
 C        -9.6295122782       -2.0238002430       -2.1417535214
 C       -15.7997631415        0.4512388311        2.8896081089
 C       -15.6223146748        2.0573966820        0.8384356108
 C        -9.5440863083        5.5090542157        3.1289782622
 C       -11.8058580378        6.2772705829        3.6576918085
 H       -10.5985271704        6.6525988099        0.6630531295
 H       -12.3989983962        6.6477389756        0.9428552455
 H       -11.8035245518        5.6750390867       -0.2586771005
 H       -13.3052438687        4.3943701183        4.4410373867
 H       -12.5917395506        3.2388497654        5.6375711745
 H       -14.2298458741        1.8859879419        4.9096923254
 H       -13.0532659752        1.1745643580        3.9035468753
 H       -13.4831430497        0.6311160389       -0.7892073687
 H       -14.8778987910       -0.3043966983       -0.3526890663
 H       -13.5039876929       -1.9899163326       -1.0070875499
 H       -13.1493617785       -2.1398188002        0.6481527923
 H        -7.9910967859       -1.4370749913       -0.5833255559
 H        -7.5719916463       -3.0403446522       -0.5167482004
 H        -6.3414374822       -1.8900597693        1.4149293784
 H        -7.7426583135       -2.4377385407        2.3560213703
 H        -6.7736482042        2.0803909131       -1.6967251806
 H        -6.1108109713        2.7357589278       -0.0866164829
 H        -8.6846903047        3.9228230898       -0.3167866788
 H        -8.4438039591        3.4540782395       -1.8136804892
 H        -9.7106101489        8.1562343812       -2.8846962525
 H        -8.7595357194        7.6680969498       -4.2377263375
 H        -6.9913412898        9.2751515282       -3.6816592381
 H        -8.1477740401       10.1822624247       -2.5549819487
 H        -6.3822750104        9.4060631419       -7.9549178362
 H        -5.6923416604       10.7582333315       -7.1192631322
 H        -7.2767467582       11.0153808038       -8.1785449544
 H        -8.3142844633       12.5185934141       -7.1895463941
 H        -9.6199077943       12.6484587140       -5.8211296829
 H        -9.5410037803       11.1364903517       -6.9682928647
 H        -6.2006264836       11.8736743812       -5.1895501537
 H        -7.0248992603       11.6963510707       -3.6822920773
 H        -7.5494608369       13.1226984393       -4.8156770220
 H        -5.6237009018        7.4404544260       -3.1625394737
 H        -4.6657753003        6.2480320069       -2.6386821418
 H        -5.5337001076        7.1377243719       -1.4537446114
 H        -7.1236620178        3.9991235974       -3.5322316163
 H        -6.3785283762        5.2542524010       -4.3557236964
 H        -8.1934615204        5.2989786447       -4.0790698718
 H        -7.7937661312        1.8126258156        3.1838748898
 H        -6.6940819634        2.8794682690        2.2350492215
 H        -5.9549138489        1.5904557780        3.2600673728
 H        -5.2146626388        1.1843229594        0.2230283751
 H        -5.7893341903       -0.3333792294       -0.2608734495
 H        -4.9741592334       -0.2875153843        1.3863701203
 H       -12.0827554130       -3.6499488256       -1.9872290846
 H       -11.4772509857       -4.3169024876       -0.4115239956
 H       -10.5891865001       -4.5622529720       -1.8583994872
 H       -10.1078911814       -1.7019379322       -3.0635575588
 H        -8.7578226648       -2.5804862967       -2.5087289003
 H        -9.1968177123       -1.1732850637       -1.7233324234
 H       -15.3498679573       -0.4977949695        3.0687935129
 H       -16.6967138462        0.2974396661        2.3664751281
 H       -15.8912896543        0.8756002437        3.9119225885
 H       -15.9637611562        2.9032840132        1.4135526946
 H       -16.5597051158        1.5174150973        0.6199383822
 H       -14.9757337588        2.1968466932       -0.0402385808
 H        -8.7827709431        4.8739879845        3.5846649614
 H        -9.5851591578        6.5416610376        3.5260734761
 H        -9.1410926885        5.6249676303        2.0940844061
 H       -11.6549309200        6.4838662345        4.6782095800
 H       -12.9206689780        6.3231478198        3.5775809693
 H       -11.3541995641        7.1428675183        3.1922918497
 Na      -10.7610532038        1.2422003834        1.6588766383
