117

 C       -15.4716237822       -3.8401349830        4.4361430426
 C       -15.2757784440       -3.4393919002        5.8562287589
 O       -14.8117127268       -4.1280130871        6.7270710117
 C       -15.5593825779       -1.9159881612        6.2559587779
 C       -15.3389908807       -0.9671533501        5.0918804568
 O       -16.0851361951       -1.1034561447        4.0779018586
 C       -14.2779368353        0.1489574829        5.1016955590
 C       -14.2903493449        0.9332176910        3.7198616103
 C       -12.8706213741        1.0438642368        3.1477790943
 O       -11.9312244455        0.5839124231        3.8242777767
 C       -12.5988209030        1.6343509860        1.6569127277
 C       -11.5152533870        2.8106903904        1.7433330462
 O       -11.7468309084        3.9892091141        1.4926301164
 C       -10.1306241816        2.3389876063        2.1107331194
 C        -9.4348647655        3.6282966089        2.6341035408
 C        -9.2823795968        4.6983196902        1.5223459185
 O        -8.6345989789        4.3328931928        0.5464491153
 C        -9.6112538236        6.2609209656        1.7922323681
 C        -9.9859076881        6.6471769213        0.3577975300
 O        -9.1838211256        6.8976231081       -0.5077447979
 C       -11.4473993832        6.5547970137       -0.0703077279
 C       -11.4681225326        7.3650343154       -1.4086725935
 C       -11.6801855911        6.4808452704       -2.6428458372
 O       -12.4303282278        5.5385578865       -2.6237362869
 C       -10.8321420270        6.7588492209       -3.9982304767
 C        -9.6072694133        5.9063144726       -3.6536739800
 O        -8.5917758241        6.4018653568       -3.1379149637
 C        -9.7513990676        4.3260094837       -3.6882361010
 C        -8.6082703455        3.6405941585       -4.5704945813
 C        -7.4636065291        2.9560220509       -3.7997091075
 O        -7.2825094660        3.0908921866       -2.6368587009
 C        -6.2638014990        2.2454186829       -4.6252967202
 C        -5.3050842658        3.4646134189       -4.8458723094
 O        -5.7896387098        4.4270110350       -5.4445556533
 C        -3.9744036603        3.5916477896       -4.0995273614
 C        -3.5392048607        5.0609592680       -3.8670874572
 C        -4.4735211072        5.6530644568       -2.8391247420
 O        -5.1876977575        4.9100529714       -2.2328441535
 C        -4.3606126655        7.2070814666       -2.5340166801
 C        -4.5234300899        7.3075172923       -0.9150341034
 O        -5.4567906501        6.7931403360       -0.3558375894
 C        -3.5487371470        8.1270908943       -0.1456112984
 C        -3.0166540610        7.7827611536       -3.1360566611
 C        -5.5980914742        7.9473859304       -3.1078022791
 C        -5.6357015880        0.9706349092       -3.9757508216
 C        -6.8167284098        1.8586637646       -6.1026780941
 C       -11.5772489563        6.1702885421       -5.1807730707
 C       -10.5714921758        8.2289218124       -4.2144218962
 C       -10.8098567030        6.3911900508        2.8202520951
 C        -8.2566327727        6.8376580025        2.2928623675
 C       -11.9541003688        0.4624355467        0.9191135872
 C       -13.9324392597        2.1981698851        1.0913300371
 C       -16.9275614034       -1.6232397609        6.8747105584
 C       -14.4733837206       -1.6222004381        7.3746156528
 H       -16.4044475798       -3.4031672304        4.0510084943
 H       -15.5755534776       -4.9733109176        4.3227700119
 H       -14.6259710646       -3.4102980069        3.8721636420
 H       -13.2813154451       -0.2703884402        5.3247036617
 H       -14.4380071741        0.7823326841        5.9888449757
 H       -14.7838930038        1.9079351360        3.7422302865
 H       -14.9747215555        0.3157872305        2.9780920762
 H        -9.6711446807        2.1009593686        1.1526215773
 H        -9.9952388789        1.4432783831        2.7448313361
 H        -8.4657246412        3.4418564840        3.0058169520
 H        -9.9767566520        3.9366537799        3.5132284596
 H       -12.0263022702        7.0905425861        0.6809640275
 H       -11.7542793167        5.5364566950       -0.2643113700
 H       -10.6113995512        8.0588427813       -1.4917980258
 H       -12.4079253265        7.9837582912       -1.5056653276
 H       -10.6893787066        3.9729564919       -4.0209473502
 H        -9.7205603727        4.0179411665       -2.6315577755
 H        -8.0802999318        4.3309372666       -5.2239838181
 H        -9.0804735357        2.9025045563       -5.2010012352
 H        -3.2248193461        3.0983419849       -4.7099323419
 H        -4.0210160137        3.0311527784       -3.1615152530
 H        -3.7748152491        5.5866824545       -4.8529864141
 H        -2.4967434050        5.2635882911       -3.5631887374
 H        -2.5373968541        7.6821936519       -0.2789784819
 H        -3.7951402811        8.2457348440        0.8766010258
 H        -3.2925328516        9.1111321636       -0.6727793503
 H        -3.0526777339        8.8639468810       -3.1144058013
 H        -2.8789302879        7.7213267627       -4.2206808454
 H        -2.1392155429        7.3630555728       -2.6727627319
 H        -5.5586758133        8.9953992923       -2.9200831201
 H        -6.5477432787        7.5514072723       -2.8058145857
 H        -5.6152806714        7.8489943286       -4.1832183939
 H        -5.9153468946        0.0335520046       -4.4877064405
 H        -6.0032164273        0.8774002662       -2.9714004626
 H        -4.5675990781        1.0188693227       -3.8751706264
 H        -6.0083187289        1.8483059614       -6.8461482735
 H        -7.5109377893        2.6367119373       -6.4116409900
 H        -7.3863444847        0.9848049751       -6.0902621046
 H       -12.2488415485        5.2988183357       -5.0196393514
 H       -10.8441396014        5.7401485851       -5.8861464223
 H       -12.1065043875        7.0336090255       -5.6348128916
 H        -9.6706887111        8.4238962780       -3.6575626647
 H       -11.4536395530        8.7859838657       -3.9311872782
 H       -10.3780362331        8.4330969730       -5.2566380247
 H       -11.1894823419        7.4219498160        2.9274920129
 H       -10.5792073350        6.0348370315        3.8676624760
 H       -11.4889678696        5.7686402959        2.3566297556
 H        -8.3397435661        7.9259047746        2.4934961100
 H        -7.4070379628        6.7024347008        1.6660384587
 H        -8.0591394032        6.2791756460        3.2446728011
 H       -11.0732668226        0.0979304281        1.3884692689
 H       -11.4942184007        0.8061215918       -0.0527010455
 H       -12.6172365779       -0.3714013874        0.8113484249
 H       -13.7508616037        2.9751636463        0.3876839894
 H       -14.5184498156        2.7489281680        1.8019123231
 H       -14.5699627068        1.4608638617        0.6444420592
 H       -17.0060546144       -0.6058051056        7.1738152920
 H       -17.2146133871       -2.3010075057        7.6848713524
 H       -17.6882382376       -1.7707937423        6.1125407646
 H       -14.5411957013       -2.4398644620        8.0883084543
 H       -14.6256116960       -0.7063438790        7.9277938058
 H       -13.4545850638       -1.5900166710        6.9042131378
 Na       -7.3884193489        5.3963643830       -1.1949332580
