117

 C       -11.3781872763        5.8138026896        0.4806020061
 C       -11.0561590315        4.7187016623        1.5333235213
 O       -10.8641746299        3.5918880746        1.0270326171
 C       -11.1740548393        5.0459357931        3.0903995033
 C       -11.4325247404        3.7795721003        3.9389451050
 O       -10.6256781684        2.9113006025        3.8571005939
 C       -12.7983469059        3.6081606051        4.8012527897
 C       -13.3675913942        2.3703131863        4.1644070186
 C       -14.1435536823        2.6578808570        2.8933653416
 O       -14.5110996178        3.8343858363        2.6871037174
 C       -14.7255383464        1.5410069689        1.8970264174
 C       -13.6597454848        0.5255596001        1.4121122178
 O       -12.7271822241        0.4354043889        2.1673745036
 C       -13.6150923724       -0.1775180679        0.0701874744
 C       -12.7894023504       -1.4502953925        0.1382701036
 C       -11.3809166755       -1.3102356249       -0.3410507751
 O       -10.7883652902       -0.2626392270       -0.0951626423
 C       -10.5858967039       -2.3679642019       -1.0527470272
 C        -9.5342070252       -2.7976018236        0.1759717898
 O        -9.7296466576       -3.6603390302        1.0592060435
 C        -8.2141896922       -1.8914652099        0.2258372581
 C        -7.9610303474       -1.7596977355        1.6788806979
 C        -8.1076692664       -0.2637318867        1.9801703022
 O        -9.0849199544       -0.0384683297        2.6236274892
 C        -7.0751337728        0.9045088299        1.3681224224
 C        -7.9200566108        1.5575116618        0.2426653002
 O        -9.1529317150        1.4899741266        0.2344159055
 C        -7.2115438746        2.5568517922       -0.6822600655
 C        -8.0855837805        3.9519455586       -0.8976844872
 C        -7.1654488626        5.1015855707       -1.0739016839
 O        -6.3298363427        5.3468883919       -0.1633279069
 C        -7.1090713202        5.8099593798       -2.3823688817
 C        -8.1419796524        7.0876791528       -2.1286017775
 O        -8.3743147567        7.5889915802       -1.0404605434
 C        -8.5359527080        7.7122609511       -3.4284920701
 C        -7.9852727161        9.1680247608       -3.5877827596
 C        -8.8627744864        9.9806499348       -4.4965277648
 O       -10.0365639233        9.7563030933       -4.4930993926
 C        -8.0790598856       10.9236900675       -5.4976702576
 C        -7.4349198447        9.8673607217       -6.4786493635
 O        -7.6741165060        8.6609088623       -6.4402860454
 C        -6.3901573501       10.3663009884       -7.4865849832
 C        -8.8776427587       12.1033553296       -6.1820682612
 C        -6.8251721850       11.7848207784       -4.8074219274
 C        -5.6508373031        6.5173400828       -2.4860437622
 C        -7.4772888191        5.0489053417       -3.6863002951
 C        -6.8731546702        1.9227890163        2.5456017136
 C        -5.6894055389        0.2693536764        1.0301325070
 C       -11.4615578083       -3.6197696393       -1.2688412937
 C       -10.1062049517       -1.8418268922       -2.4153108077
 C       -15.8249826208        0.9712804162        2.7932448334
 C       -15.4697650322        2.1454070620        0.7373221114
 C        -9.6422899644        5.2261754108        3.4533260071
 C       -12.1005902457        6.1371178379        3.3892887690
 H       -10.5607091049        6.3412817370        0.0747594467
 H       -12.1038238846        6.4348670949        1.0039893576
 H       -12.0532067285        5.4665219256       -0.3027079949
 H       -13.4707316381        4.4713758374        4.8276007616
 H       -12.5073864298        3.4201338414        5.8429841351
 H       -13.8705595277        1.6967449920        4.8436401651
 H       -12.5661025448        1.7536065572        3.9474577287
 H       -13.2268865917        0.5630113513       -0.6303735065
 H       -14.6494451267       -0.3391168087       -0.2663747369
 H       -13.4067694580       -2.2058114886       -0.4520356397
 H       -12.7438445358       -1.7429807897        1.2541933202
 H        -8.4529231601       -1.1129434134       -0.5348235306
 H        -7.5272345206       -2.4863652968       -0.2501044910
 H        -6.9978848730       -2.1837896461        1.9402048071
 H        -8.6629817037       -2.3362912812        2.3471584403
 H        -6.9048618628        2.2025935745       -1.6477761063
 H        -6.2749759697        2.8499140390       -0.0930375547
 H        -8.5343175867        4.2139983880        0.0865627714
 H        -8.9945979446        3.9426909530       -1.5607803872
 H        -9.6728099655        7.6844389485       -3.3483353085
 H        -8.2183580105        7.0491072379       -4.2883445191
 H        -6.9627425840        9.1620597929       -3.9494164735
 H        -8.0206338740        9.7158056596       -2.6239608423
 H        -6.3025791207        9.4620619998       -8.1333851134
 H        -5.4092547898       10.5159917501       -7.0017878854
 H        -6.9610634435       11.0507419293       -8.0626939342
 H        -8.3142572410       12.5061159634       -7.0208669286
 H        -9.0280961346       12.8087005055       -5.3762421184
 H        -9.8146974780       11.6578474092       -6.5279753347
 H        -6.4329068224       12.3426373659       -5.6768915400
 H        -6.1113421073       11.0198322517       -4.5427784908
 H        -7.4077223549       12.2828416030       -4.1260364033
 H        -5.3613850748        6.6864398257       -3.5696795188
 H        -4.8132416118        5.9545847240       -2.1638107334
 H        -5.4345297461        7.4638720232       -1.8583213539
 H        -7.4055281164        3.9946536833       -3.6353622583
 H        -6.7759966073        5.3169641622       -4.4439323602
 H        -8.5091080606        5.2996091715       -4.0289286345
 H        -7.3849197987        2.8090672061        2.4910846118
 H        -5.8022609033        2.1597026935        2.5499671172
 H        -7.0344083587        1.5324375773        3.5217739373
 H        -4.9665465623        0.9978773669        0.7539896376
 H        -5.7588816290       -0.3461906943        0.1219019769
 H        -5.3998909255       -0.3285135198        1.8710550796
 H       -12.2975632878       -3.3534433366       -2.0205000313
 H       -11.7686428794       -4.0350752261       -0.2846141827
 H       -10.8097452081       -4.4586372422       -1.6732249797
 H       -10.7543629280       -2.2226974900       -3.2222086920
 H        -9.1375010550       -2.1948925701       -2.7226722928
 H        -9.9636505988       -0.7415998710       -2.5455058945
 H       -15.4939657870        0.2627624511        3.6027395766
 H       -16.6479139965        0.5924956046        2.0992147529
 H       -16.2325591208        1.8075267607        3.3770888673
 H       -16.2367205608        2.8140920362        1.2221822275
 H       -16.0132407101        1.3112682594        0.2882393706
 H       -14.7509070211        2.6106325583        0.0685286988
 H        -9.2266677925        4.5610247209        4.2437026078
 H        -9.4649403680        6.2669986069        3.6686097185
 H        -9.0593224625        4.9596007202        2.5945330875
 H       -12.2181025348        6.4060931878        4.4963782466
 H       -13.1424660756        5.9560389333        3.1789471697
 H       -11.6969899479        7.0627026691        2.9680993623
 Na      -10.7415825464        1.4910914676        1.8050436851
