117

 C       -16.1910655621       -4.0388038343        6.1836124140
 C       -15.0828218865       -2.9647163737        6.4781873980
 O       -13.9324234230       -3.2278692829        6.3597787237
 C       -15.5308537549       -1.5402172220        6.8710020180
 C       -15.5523610133       -0.8449359139        5.4613331979
 O       -16.6425023412       -0.6478693116        4.8950994433
 C       -14.2225573108       -0.4270958215        4.9003081822
 C       -14.3098207545        0.2793243012        3.4890568276
 C       -12.9826728648        0.5993916537        2.8375307470
 O       -11.8952100224        0.3060261441        3.3737191653
 C       -12.8858966513        1.2317842773        1.3651111256
 C       -12.1389657544        2.5899795148        1.7288788381
 O       -12.7658507851        3.6165812782        1.8493628568
 C       -10.5711124046        2.6343627054        1.7860355643
 C        -9.8848259204        3.9398486030        2.2487168225
 C        -9.4428971741        4.8753858763        1.1137803089
 O        -8.9272779038        4.2938884186        0.1986970211
 C        -9.6024368770        6.4523096138        1.2702046203
 C       -10.0013191472        7.0050729992       -0.1303548000
 O        -9.1912159216        6.7820814889       -1.0800286914
 C       -11.3113360807        7.7103319715       -0.4643079461
 C       -11.4308477405        8.1536445776       -1.9573482524
 C       -11.2685062487        6.9470990420       -2.8986278605
 O       -11.8316978642        5.8976152577       -2.6618031332
 C       -10.2385352143        7.0023067701       -4.1966750051
 C        -9.1243128815        5.9619679749       -3.7312453412
 O        -8.0017418359        6.4343754860       -3.5480976658
 C        -9.5593111339        4.4490833741       -3.5083010901
 C        -8.6010972862        3.4177889257       -4.1134556007
 C        -7.5766890303        2.9538664413       -3.1205043943
 O        -7.7236392392        3.0059428782       -1.9097750378
 C        -6.3218213816        2.0508027852       -3.5776065347
 C        -5.4749869205        2.9610107026       -4.6223873376
 O        -6.0573141174        3.3038029138       -5.6322796267
 C        -3.9772553013        3.2939058633       -4.3498361438
 C        -3.8155570219        4.8376105122       -4.2487841645
 C        -4.5101973705        5.4146949678       -3.0155139989
 O        -5.3433134254        4.7333534899       -2.4221719673
 C        -4.2069778966        6.9070080500       -2.7411317238
 C        -4.4974637312        7.2257758142       -1.2299205570
 O        -5.6525433103        7.1503363187       -0.7761034693
 C        -3.4181164026        7.7613008339       -0.3619000227
 C        -2.7236857703        7.2425733686       -3.1155837741
 C        -5.0565903333        7.8368755485       -3.5951860997
 C        -5.5241330451        1.7314691922       -2.3476809808
 C        -6.7506525223        0.7477018959       -4.4723528158
 C       -11.0449300108        6.5383445849       -5.4798298746
 C        -9.6713853580        8.4242234640       -4.4700745708
 C       -10.5976866473        6.7859320780        2.4474336205
 C        -8.1150394415        6.9568452201        1.5217890827
 C       -12.1417637709        0.3371648658        0.4034330646
 C       -14.3020199113        1.4719582894        0.8015810636
 C       -16.9193371778       -1.6627637324        7.5057242069
 C       -14.6511287440       -0.7745401282        7.8998868520
 H       -16.7496384312       -4.2094561460        7.0946064195
 H       -15.7815846983       -4.9417872530        5.7622505642
 H       -16.8690298420       -3.7151642204        5.4368102341
 H       -13.5775131413       -1.3440291713        4.9918755999
 H       -13.9196613189        0.2856032245        5.6854383131
 H       -15.0318440914        1.1157907547        3.5706407175
 H       -14.8423846642       -0.5502860502        2.8087694020
 H       -10.3027150211        2.4050075537        0.7346276241
 H       -10.1727969148        1.8007607521        2.3506691623
 H        -8.9665745565        3.6665715470        2.7654371298
 H       -10.5518651642        4.3569390222        2.9316778582
 H       -11.4351641961        8.6282884393        0.1492835828
 H       -12.0562700898        7.0173971815       -0.0867201018
 H       -10.8669868180        9.0899030498       -2.1849679687
 H       -12.4601550757        8.5653563687       -2.0426552247
 H       -10.5376555463        4.2684134666       -3.9825465799
 H        -9.6934893162        4.1832586919       -2.4656678386
 H        -8.0939677679        3.8160558950       -4.9959192758
 H        -9.1344954767        2.5267589564       -4.4430272654
 H        -3.3646502831        2.9937445194       -5.1458060213
 H        -3.6413531886        2.6751943468       -3.4855261466
 H        -4.1523827354        5.3412225330       -5.1346063971
 H        -2.7254667328        5.1353442759       -4.1807880044
 H        -2.4748142675        7.2673809872       -0.3282695612
 H        -3.7312153416        7.7005872491        0.6956672651
 H        -3.3250596161        8.8517344232       -0.6133161072
 H        -2.5485496134        8.3334787356       -2.9661149754
 H        -2.4684528495        7.1670797029       -4.1928251290
 H        -2.0507842292        6.5927661096       -2.5459607740
 H        -4.7552179599        8.9080629768       -3.4708345548
 H        -6.1062264307        7.7287659917       -3.2347114816
 H        -5.0330419311        7.6176508536       -4.6881239788
 H        -6.1455087010        1.2309854505       -1.5799273094
 H        -5.1772378209        2.6539461846       -1.8864721424
 H        -4.7184502362        1.1314725132       -2.7264800050
 H        -5.8311300101        0.2723565712       -4.9015431159
 H        -7.2610485299        1.0774564420       -5.3890094335
 H        -7.3444013673        0.0201500691       -3.9280089907
 H       -11.4242337032        5.5701423476       -5.1917902841
 H       -10.4437002272        6.5006612958       -6.3936421939
 H       -11.9442832339        7.1617171339       -5.5434874657
 H        -8.9227823309        8.6238808618       -3.6941122645
 H       -10.5328750077        9.1449817500       -4.3985166385
 H        -9.1970880283        8.6943876546       -5.3929058074
 H       -11.0297263344        7.7925930925        2.3515492903
 H       -10.2008706259        6.6968097436        3.5170762623
 H       -11.4292325036        6.1269989654        2.2910430759
 H        -8.2059241763        8.0287113093        1.3606744820
 H        -7.4573659093        6.5238218578        0.8310271413
 H        -7.7177559070        6.7434084624        2.5099675684
 H       -11.1633040895        0.1367135460        0.8164822425
 H       -12.0374602298        0.9567745791       -0.5362825705
 H       -12.6879989941       -0.5494298826        0.2989495182
 H       -14.1517255745        1.6853218040       -0.2771549877
 H       -14.7348158934        2.4254375236        1.1940855379
 H       -14.9667140248        0.5683609477        0.8997431463
 H       -17.3654538878       -0.7028763791        7.5976508094
 H       -16.8411340675       -2.1278375483        8.4981208271
 H       -17.6318421205       -2.2134446351        6.8881089999
 H       -14.5943604784       -1.4146770168        8.7692001112
 H       -15.1136681189        0.1683482187        8.2348637515
 H       -13.6309360622       -0.5658576088        7.6082203610
 Na       -7.3247836057        5.3296341701       -1.3457863534
