117

 C       -16.1462318406       -4.0082116904        5.6013015552
 C       -15.1308449468       -3.2363111704        6.3785728977
 O       -14.0369873104       -3.6478039469        6.5965939326
 C       -15.6686482386       -1.7302574046        6.6932736636
 C       -15.3792937259       -0.9056531629        5.3891807351
 O       -16.3210116199       -0.6454421026        4.6118907297
 C       -13.9515594066       -0.4772824611        5.0121825037
 C       -14.1036441060        0.5704384016        3.8274477429
 C       -12.8160106759        0.7073918891        3.0063770711
 O       -11.6956259258        0.4587782065        3.5272244321
 C       -12.9426472715        1.3160299374        1.5488001983
 C       -11.9947329269        2.6269789451        1.4940127031
 O       -12.4887471223        3.7127692672        1.2329799032
 C       -10.5290826556        2.4595605832        1.9209730505
 C        -9.8832816555        3.7731167413        2.4158975713
 C        -9.5061394210        4.7877441930        1.2349175280
 O        -8.9055286498        4.4161198974        0.3104585637
 C        -9.6644900136        6.3303610354        1.3782816664
 C       -10.0831748513        6.8726638654       -0.0787755618
 O        -9.3979374722        6.5391124605       -1.0399072796
 C       -11.3408780318        7.7331133004       -0.3024738415
 C       -11.3321505479        8.2552687374       -1.7397404221
 C       -11.4353111410        7.0414443421       -2.6360521180
 O       -12.2581183282        6.2061222768       -2.3987654564
 C       -10.3786121373        6.8969398474       -4.0043502642
 C        -9.3325642655        5.7430925667       -3.6732410487
 O        -8.1910769001        6.2302857621       -3.5960630618
 C        -9.6588763336        4.2473105441       -3.6340362548
 C        -8.5958785473        3.3764136255       -4.2700891577
 C        -7.4139966999        2.9101637288       -3.2670633855
 O        -7.3575124931        3.1595443709       -2.0697718233
 C        -6.2722338104        2.0165490175       -3.8458762125
 C        -5.2645178645        3.0986717529       -4.6239643339
 O        -5.7214965247        3.7595638005       -5.5144036974
 C        -3.8127951563        3.3513260191       -4.2544591190
 C        -3.5445235068        4.8723354297       -4.3528034156
 C        -4.3311562235        5.5922999384       -3.1300300127
 O        -5.1773494228        4.9425588522       -2.5989284876
 C        -4.0576687211        7.0887787824       -2.7061223281
 C        -4.5203473103        7.2730770261       -1.2475273409
 O        -5.6109281318        6.8797615725       -0.8826271124
 C        -3.4379837041        7.6947889671       -0.2328858415
 C        -2.8022062780        7.7640209865       -3.1512339739
 C        -5.2202256232        7.7945387063       -3.5877014628
 C        -5.4736318478        1.3895328801       -2.6909968198
 C        -6.8520531874        0.9604081581       -4.7656714824
 C       -11.4018844888        6.5407416761       -5.1634454229
 C        -9.6132913430        8.2836493834       -4.1911412270
 C       -10.8322629902        6.6818323754        2.4190891250
 C        -8.2656426527        6.8846039029        1.7936215464
 C       -12.4442251900        0.0841463138        0.6357586986
 C       -14.4132697980        1.6956361628        1.1402640453
 C       -17.1883127394       -1.6783285644        7.1576836936
 C       -14.8001624665       -1.0131971831        7.7960188685
 H       -16.7646563808       -4.5607545759        6.2802016043
 H       -15.6985025717       -4.6720106257        4.7989557942
 H       -16.8596174266       -3.2935484032        5.1261241849
 H       -13.3278264651       -1.3400658678        4.6589421234
 H       -13.4732195945       -0.0296456897        5.8869836425
 H       -14.3052817407        1.5048667519        4.2875287754
 H       -15.0139937683        0.2681020576        3.1640826397
 H        -9.8785359271        1.9738351652        1.1536029327
 H       -10.4941227967        1.7431225656        2.7557670734
 H        -8.9391281987        3.5083764737        2.8712222336
 H       -10.5516258660        4.1579817578        3.0984091454
 H       -11.2099003000        8.4641882350        0.5188292261
 H       -12.2345951673        7.1211286529       -0.1963634066
 H       -10.4124774336        8.7904279000       -2.0099017005
 H       -12.1999473958        8.8524005082       -1.9634531444
 H       -10.6235214745        4.0857117575       -4.1531090216
 H        -9.7654962002        3.9751586781       -2.6009277727
 H        -8.1304371040        3.9417012032       -5.0773988267
 H        -9.0660487665        2.4879261660       -4.6818962017
 H        -3.3157081008        2.7635935472       -4.9902620216
 H        -3.4946884438        2.9358911621       -3.2343279579
 H        -3.8847423774        5.3109983040       -5.2851503870
 H        -2.4324371979        5.1858800151       -4.3098258223
 H        -2.7335860700        6.8455729015       -0.0393647988
 H        -3.8179390988        8.0052364539        0.6941837531
 H        -2.8518217675        8.6412678952       -0.5241740664
 H        -2.8250733661        8.8394480100       -2.8668444985
 H        -2.6843608104        7.6307662175       -4.2573186785
 H        -1.8641719149        7.5141532135       -2.6182678251
 H        -5.2841829147        8.8679115543       -3.3857989476
 H        -6.1978897450        7.4141491156       -3.3456340857
 H        -4.9922971530        7.6731997995       -4.6309466836
 H        -6.1606055922        0.8793317264       -2.0113474447
 H        -4.9392008163        2.1836606960       -2.1453272991
 H        -4.7775197601        0.6896536010       -3.1082867989
 H        -6.2252758249        0.1462197469       -5.1144396650
 H        -7.0774808085        1.5743000368       -5.6117575598
 H        -7.7829934815        0.5342523469       -4.3899753207
 H       -11.8861065069        5.6078208671       -4.9399364678
 H       -10.8675505405        6.7061513125       -6.1167093701
 H       -12.2789146782        7.2402399730       -5.1402025706
 H        -9.0822940306        8.6864404888       -3.3426146582
 H       -10.4020773718        9.0360476872       -4.5319720157
 H        -8.9546610430        8.1714533203       -5.0229489795
 H       -11.1600901034        7.7146732883        2.3099307108
 H       -10.3241652617        6.5178210203        3.4408555401
 H       -11.6392521326        5.9945297510        2.3379217520
 H        -8.4077952096        7.9531658812        2.0593182448
 H        -7.5124376899        6.6941617119        1.0118496689
 H        -7.9349932976        6.4519869996        2.7521462518
 H       -11.5199523146       -0.3916987055        1.0123525201
 H       -12.5017219175        0.4177762754       -0.4192690501
 H       -13.2023104565       -0.6574019802        0.7010813143
 H       -14.4527538009        2.2060881788        0.1364537714
 H       -14.8887886976        2.2920742776        1.8965542587
 H       -15.0484963613        0.8008778721        1.1321741027
 H       -17.3626780420       -0.7089397488        7.6302039873
 H       -17.5300639295       -2.4334604441        7.8974126103
 H       -17.8797513092       -1.7425238374        6.2825705314
 H       -15.1374840443       -1.1866727954        8.8103623644
 H       -14.7551444785        0.0809899322        7.6278514412
 H       -13.8389261564       -1.4463169412        7.8209912001
 Na       -7.4122691791        5.5446113755       -1.4654450949
