117

 C       -11.3209574074        5.7325919847        0.4929902888
 C       -11.1793659715        4.6320411731        1.5722680135
 O       -10.7824667876        3.5532917536        1.1317401119
 C       -11.1315451947        5.1197131305        3.0374793464
 C       -11.4921598163        3.7315584563        3.8298278843
 O       -10.7126472339        2.7811817641        3.7219286599
 C       -12.5802491169        3.3719257921        4.7843632806
 C       -13.5397100405        2.3867330326        4.1715429578
 C       -14.2258705476        2.8449799281        2.7821786234
 O       -14.2711919790        4.0065410234        2.5305012405
 C       -14.7721525472        1.7021443937        1.9013068870
 C       -13.5913725540        0.6352513833        1.6108222130
 O       -12.6308202556        0.3803369760        2.3565956151
 C       -13.6913003888       -0.1868076486        0.1959564497
 C       -12.7579953622       -1.4944235673        0.2918417939
 C       -11.3193769337       -1.1671766401       -0.2933084949
 O       -10.7470486080       -0.1855960678       -0.0242053973
 C       -10.6771219880       -2.4687974094       -1.1038730209
 C        -9.6753002505       -2.8241498222       -0.0456026795
 O        -9.9256496871       -3.6747836950        0.7539896988
 C        -8.3129556450       -1.9321899089        0.1862286237
 C        -7.8363242005       -1.6528780571        1.6542739668
 C        -8.2315650762       -0.1273893019        2.1349260994
 O        -9.2348233071        0.2333307112        2.7142898368
 C        -7.1696319301        0.8316283780        1.6055330399
 C        -7.9376514396        1.6925663072        0.2713748946
 O        -9.1220431322        1.6041907069        0.1249830885
 C        -7.2282645991        2.6801660758       -0.5774334671
 C        -8.0736310362        3.8558785923       -0.7902295351
 C        -7.0970367274        5.0446580487       -0.9984572849
 O        -6.3523617539        5.3954229812       -0.1259443656
 C        -7.0719357114        5.8212601407       -2.3787514725
 C        -8.0536704842        7.1329528704       -2.2091645548
 O        -8.4993831970        7.3590891067       -1.1304367230
 C        -8.5582122712        7.7113211852       -3.4951268358
 C        -7.9285840781        9.1377504212       -3.4712079618
 C        -8.8268747575        9.8538885921       -4.6324108069
 O       -10.0407156319        9.7929536597       -4.7301316383
 C        -7.9903807800       10.7336028161       -5.5077604359
 C        -7.3637560090        9.7644239045       -6.6511155141
 O        -7.6423700282        8.6168360963       -6.6199470985
 C        -6.2448645820       10.4176744987       -7.6047403680
 C        -8.9775006131       11.8285756625       -5.9147974504
 C        -6.7645928640       11.4395687087       -4.8225231189
 C        -5.6584661003        6.3873834026       -2.6748803206
 C        -7.5098696669        4.9129495663       -3.4338035638
 C        -6.8484129631        2.0527014546        2.5496005551
 C        -5.8079329343        0.2552067430        1.1540863269
 C       -11.6097781353       -3.7313150748       -1.1732840819
 C       -10.2349177425       -1.8419431458       -2.3888446050
 C       -15.8864179456        0.7976453011        2.7704680782
 C       -15.3318241256        2.3737359036        0.5880157680
 C        -9.5981087964        5.5442003544        3.4953136429
 C       -12.0156817921        6.3242828770        3.2521355083
 H       -10.2391102154        6.0757617132        0.3996766029
 H       -11.9459859504        6.5118820353        0.7837700982
 H       -11.7268417164        5.4383152082       -0.4931725876
 H       -13.1801513919        4.3244919921        4.9857015141
 H       -12.1098617429        3.1106109647        5.7652147192
 H       -14.3336923441        2.3539093989        4.8560858725
 H       -13.2204112582        1.2745541854        4.2736026390
 H       -13.4279387378        0.4774996812       -0.6256949051
 H       -14.7069382499       -0.4398429826        0.0749257996
 H       -13.2800662401       -2.1936350183       -0.4048440110
 H       -12.7851614103       -1.8332664374        1.3267249366
 H        -8.5322696387       -1.2037900823       -0.5315327017
 H        -7.6154997673       -2.5618114768       -0.3736024494
 H        -6.7243674768       -1.8179247063        1.7700620050
 H        -8.2316284334       -2.4235428001        2.3471038497
 H        -7.3004337217        2.1609962938       -1.5642198873
 H        -6.1341877492        2.8847911862       -0.3959362872
 H        -8.8623528862        3.9520823059        0.0923404960
 H        -8.7558376280        3.6722364350       -1.6821866969
 H        -9.6914270222        7.8007938594       -3.4797540004
 H        -8.1888713885        7.0556164438       -4.3321332002
 H        -6.9016688991        9.1436252540       -3.8359298625
 H        -7.9493377006        9.5408107530       -2.4829557785
 H        -5.9733273998        9.7768471083       -8.4755339282
 H        -5.4595035088       10.4365492043       -6.9915883327
 H        -6.7693710361       11.2890908934       -7.9855488769
 H        -8.5947398039       12.3100023057       -6.7632296057
 H        -9.1545630309       12.4590758729       -5.1436356090
 H        -9.8217398211       11.3074730036       -6.1594806091
 H        -6.7563584172       12.3584638909       -5.2919972334
 H        -5.9361509166       10.7334602068       -5.0697290440
 H        -7.1800564921       11.4438584406       -3.8555972513
 H        -5.4715389899        6.7009278331       -3.7789555907
 H        -4.8070545787        5.7592271081       -2.4217894910
 H        -5.3987111337        7.1995718568       -2.0456982991
 H        -6.8266710178        4.1052879520       -3.3892375197
 H        -7.3928219333        5.3346398494       -4.4224796583
 H        -8.5807612441        4.5280165771       -3.3255201493
 H        -7.1873216600        3.0263130640        2.2434846846
 H        -5.7990726098        2.1440606461        2.8042938617
 H        -7.2836996087        1.9361534578        3.4840748028
 H        -5.3453970817        1.2180809114        0.8545287725
 H        -5.7092616385       -0.3142564024        0.3121993132
 H        -5.2323436407       -0.1450669085        1.9807338238
 H       -12.2924455546       -3.4454155398       -1.9251212475
 H       -11.9740933739       -4.2336108493       -0.2854602680
 H       -10.9130704797       -4.4587783872       -1.6495583994
 H       -10.9138255203       -2.0392239989       -3.2693776254
 H        -9.2632295440       -2.2096016890       -2.7405385032
 H       -10.0494154995       -0.7862018155       -2.3563940278
 H       -15.6368864469        0.6633062866        3.8140241330
 H       -16.1509001182       -0.0782342626        2.1715883582
 H       -16.8292096690        1.4535595663        2.8180450056
 H       -16.2335093984        2.9529365429        0.8274002394
 H       -15.5591651261        1.5275505128       -0.1116491488
 H       -14.5444784467        3.0133620222        0.2512421233
 H        -9.5641772079        5.3013175052        4.5802064335
 H        -9.5583022622        6.6256821648        3.4176027784
 H        -8.7814967420        5.0779371665        3.0403083712
 H       -12.6340619803        6.3097999952        4.1484082464
 H       -12.9077466078        6.3155036856        2.5956990410
 H       -11.4927629143        7.2769873560        3.2499928553
 Na      -10.5874924856        1.5918228611        2.0029013260
