117

 C       -11.2151139096        5.8252279868        0.3614992232
 C       -10.9094554086        4.7674859661        1.5225900803
 O       -10.8548943755        3.6488326887        1.2041318691
 C       -11.1187416775        5.1176114267        3.1051963962
 C       -11.3954732840        3.7024554907        3.8244905946
 O       -10.5711297035        2.7875509604        3.6955967750
 C       -12.6816960309        3.4552101327        4.7905884328
 C       -13.9230938147        2.6358469450        4.2823326973
 C       -14.2574406184        2.9629344055        2.8593501709
 O       -13.9710193363        3.9937857504        2.3497629751
 C       -14.6959921152        1.7655700107        1.8570360609
 C       -13.5763091711        0.7438705077        1.7232458324
 O       -12.6888569782        0.4181584107        2.5123425332
 C       -13.7784299983       -0.1462158482        0.4756093127
 C       -12.9201921327       -1.4484935496        0.4402128829
 C       -11.5446559932       -1.2512766814       -0.2146333510
 O       -10.8316169923       -0.2707924544       -0.0429359758
 C       -10.8669475846       -2.3746288624       -1.0619870550
 C        -9.7014058270       -2.7870169116       -0.0060815481
 O        -9.9064552099       -3.7696899805        0.6130441928
 C        -8.3311523258       -1.9280193094        0.1682173840
 C        -8.0538510847       -1.5922419436        1.6375510140
 C        -8.1496471595       -0.1026235675        2.0139125104
 O        -9.0358795794        0.1057378832        2.8648821119
 C        -7.2217424068        1.1045390131        1.6189647468
 C        -7.8957062450        1.7304476184        0.3391355316
 O        -9.0758111734        1.6439207620        0.1747053202
 C        -7.0213617156        2.5923234597       -0.5229139294
 C        -7.9135110773        3.9049162918       -0.6682335755
 C        -6.9794418729        5.1455599309       -0.8989027835
 O        -6.3056103755        5.4252649119        0.0503632208
 C        -7.0233569075        5.7736825821       -2.3629861174
 C        -8.1549317000        6.7964396393       -2.2516691590
 O        -8.6177579847        7.1378124634       -1.1791012181
 C        -8.6334827321        7.6240980144       -3.4820378132
 C        -8.1080199181        9.0960976663       -3.4414648442
 C        -8.6975014955        9.8488599735       -4.7132900223
 O        -9.9034957585        9.6462610677       -4.7836340947
 C        -7.8768442686       10.7293426013       -5.6072760978
 C        -7.3167106462        9.7963853004       -6.7662772325
 O        -7.5504177599        8.6176179410       -6.9123680825
 C        -6.2841437762       10.4180605400       -7.7097424694
 C        -9.0625588634       11.7651943125       -6.1004010964
 C        -6.5756523486       11.1814597899       -4.7341708938
 C        -5.6799057811        6.2916980296       -2.7899105133
 C        -7.5407129694        4.6645702474       -3.4546374698
 C        -6.9930609822        2.1902291769        2.6902671615
 C        -5.9743603952        0.3972794618        1.1405827687
 C       -11.7339765341       -3.6321033551       -1.2779973997
 C       -10.2649106618       -1.9002082031       -2.3804692640
 C       -15.7605455670        0.8254900408        2.5015505424
 C       -15.2005032143        2.4344457314        0.5902642518
 C        -9.7506859821        5.6841432280        3.4383710751
 C       -12.0863467630        6.3328242719        3.3092988178
 H       -10.2494941447        6.3694337474        0.1537027313
 H       -12.1195060077        6.4828648413        0.4826207499
 H       -11.4178823158        5.2106948812       -0.5036459990
 H       -12.8938349433        4.4639711551        5.2379942248
 H       -12.2083275513        2.9195391275        5.6528115893
 H       -14.7868177748        2.4849414427        4.9851504444
 H       -13.5330257647        1.5545036725        4.2569203405
 H       -13.6162950821        0.4913142363       -0.3880320200
 H       -14.8276575532       -0.4216421886        0.4986455290
 H       -13.4531650279       -2.0669759375       -0.1994154003
 H       -12.8651211994       -1.7845746017        1.4372011688
 H        -8.6460325461       -1.2223432135       -0.5342541602
 H        -7.4724076705       -2.4769845996       -0.3850409690
 H        -7.0704728378       -1.9851835642        2.0739098158
 H        -8.7653525002       -2.0597197159        2.3138320031
 H        -6.6192082835        2.0639972231       -1.4707086645
 H        -6.1759702960        3.0032854582        0.0164503381
 H        -8.3566746652        3.8552502131        0.3788479960
 H        -8.7636859026        3.8256081338       -1.3560705878
 H        -9.7115639703        7.7713122956       -3.5324503390
 H        -8.2866048290        7.1042287082       -4.3416226918
 H        -7.0277298647        9.1874310597       -3.4923637327
 H        -8.4326031340        9.5436403376       -2.5111117734
 H        -6.0933133837        9.9281606461       -8.5812639455
 H        -5.4652806921       10.1444278894       -7.0084663044
 H        -6.6412814997       11.4162435087       -7.9362954657
 H        -8.6880885375       12.4856159048       -6.7485405549
 H        -9.4395580865       12.2619875676       -5.1994778495
 H        -9.8354981482       11.1880404246       -6.5158782055
 H        -6.4198545372       12.2244460890       -4.9642785882
 H        -5.9347585960       10.4112166902       -5.0249055190
 H        -7.0213212646       10.9989332735       -3.7585436243
 H        -5.6674882939        6.8436464563       -3.6914154452
 H        -4.9181000002        5.4096078065       -2.8600268834
 H        -5.1248531315        6.8613004222       -2.1090567907
 H        -6.6250293720        4.0037019651       -3.7014501654
 H        -7.8607865463        5.1977423435       -4.3965009106
 H        -8.3118504971        4.0510773294       -3.1528747565
 H        -6.9706777507        3.2781272556        2.3778755784
 H        -6.1919227963        2.0480102722        3.3469916451
 H        -7.8935353320        2.1686533873        3.3934631363
 H        -5.2101717220        0.9721532112        0.6013081688
 H        -6.1848987042       -0.4190134763        0.4375547066
 H        -5.4762352874        0.0112909428        2.0646648094
 H       -12.4404081160       -3.3501466794       -1.9854581713
 H       -12.1204321582       -4.1643144400       -0.4339422603
 H       -11.0560819361       -4.2522029320       -1.7465566554
 H       -10.9860962401       -1.8262221530       -3.1937247396
 H        -9.5631172729       -2.7012846243       -2.7165394885
 H        -9.6881736157       -1.0040050289       -2.4827016302
 H       -15.8694747206        1.0190940514        3.5551281431
 H       -15.5655400752       -0.1999315896        2.3033216805
 H       -16.7811658940        0.9773853428        2.1128309045
 H       -16.0992044008        2.9826551697        0.7698563155
 H       -15.2953289795        1.6855874718       -0.1775471276
 H       -14.3702752519        3.2197970684        0.4233729444
 H        -9.8958265299        6.1587812184        4.3743070831
 H        -9.5143987179        6.4653684601        2.7110166782
 H        -8.9223515073        4.9386774936        3.5620302621
 H       -12.6918699809        6.3165530091        4.1412331810
 H       -12.9363675405        6.2726374794        2.6274879091
 H       -11.6107457943        7.3152413732        3.2821472223
 Na      -10.5240236023        1.5208517485        2.0323002190
