117

 C       -14.9027953453       -3.2377899040        8.0082499466
 C       -14.7709297478       -2.3586050146        6.8317294700
 O       -14.1330002138       -2.7319175352        5.8311896532
 C       -15.2748324897       -0.8763929136        6.9146036432
 C       -15.1900816426       -0.3357283056        5.4625834133
 O       -16.0807915266       -0.2976544325        4.7046069291
 C       -13.6837786242       -0.1170912541        4.9283653117
 C       -13.8556274873        0.6251635640        3.5695789065
 C       -12.6463741300        0.6259636474        2.6419768420
 O       -11.5206510972        0.2842665449        2.8534651407
 C       -12.9317932854        1.2674576504        1.1016814312
 C       -12.6515709784        2.8779250257        1.1011102472
 O       -13.5190393750        3.7181741067        0.8636293590
 C       -11.1828385783        3.2897198788        1.3437627913
 C       -11.0173565076        4.7590173990        1.7401632801
 C        -9.7474124034        5.5535321459        1.1463263857
 O        -8.8402402626        4.8750043053        0.8033932323
 C        -9.6820253467        7.1257424382        1.0164582267
 C        -9.9110258596        7.4897131970       -0.4351923364
 O        -9.1036017424        7.2471842130       -1.3499678046
 C       -11.1989330945        8.2391777762       -0.8144379235
 C       -11.4694209191        8.2374067175       -2.3574969992
 C       -11.1579939953        6.8441643535       -2.8524423509
 O       -11.6005690736        5.8278881027       -2.3619538900
 C       -10.2768429338        6.6875924736       -4.1600009228
 C        -9.2431116783        5.5019538310       -3.9794099494
 O        -8.1976386301        5.7755321806       -3.4537148273
 C        -9.7028517239        4.0777541603       -3.9312397620
 C        -8.6236498717        3.0434033121       -4.4687121693
 C        -7.8647996357        2.3653795550       -3.3202052770
 O        -8.2120452943        2.5242423263       -2.1649069783
 C        -6.5568876584        1.5729125137       -3.6669304244
 C        -5.4387283046        2.6035705600       -3.9974020309
 O        -5.6266565646        3.3931635997       -4.9237459882
 C        -4.1083453813        2.3992823680       -3.2768100120
 C        -3.5421265916        3.7956009685       -3.1144445151
 C        -4.5820713056        4.8786912392       -2.5336456568
 O        -5.4876701573        4.3485843930       -1.9164091924
 C        -4.3765165591        6.4529873901       -2.6235108387
 C        -4.4377377608        6.8095288915       -1.0525637690
 O        -5.4812468038        6.7136348174       -0.3882225461
 C        -3.0925492969        7.2016371977       -0.4075592683
 C        -3.0273899871        6.8471502743       -3.2860979240
 C        -5.5336189162        6.9993833719       -3.4081357660
 C        -6.3033000139        0.5110074920       -2.5123526556
 C        -6.6981302914        0.6744198859       -5.0201155397
 C       -11.2220410221        6.4244326847       -5.3949839577
 C        -9.5051961826        7.9274273410       -4.4785794682
 C       -10.5399912730        7.8189162044        2.0271053705
 C        -8.1413070805        7.3803994454        1.4077319544
 C       -11.9629549245        0.5808929045        0.1197486173
 C       -14.3385228407        0.9182466448        0.6803628737
 C       -16.7942224762       -0.8155351127        7.3762239935
 C       -14.3467332420       -0.0950746851        7.9313763634
 H       -13.9500882716       -3.8102406462        8.1290060338
 H       -15.5958465666       -3.9977358604        7.8297567756
 H       -15.0908900815       -2.7355532591        8.8998912804
 H       -13.3759126954       -1.2076596169        4.8213294777
 H       -12.9860682203        0.3537021916        5.6822789438
 H       -13.8939427970        1.6473905445        3.8195949046
 H       -14.7235103115        0.2836577102        3.2018764204
 H       -10.6067911936        3.1078273832        0.4119285644
 H       -10.7553153389        2.6109421510        2.0684149634
 H       -11.1096044446        4.9625965294        2.8353379203
 H       -11.8884031349        5.2236834886        1.3868406808
 H       -11.0212989179        9.3108755208       -0.6086645922
 H       -12.0409910506        7.9001111524       -0.1921249273
 H       -10.8860154931        8.9546835373       -2.8112775387
 H       -12.5185530063        8.2833129903       -2.5161282771
 H       -10.6746235912        3.8276051716       -4.4036845605
 H        -9.8173814938        3.8851894905       -2.8718686407
 H        -7.8692287572        3.5675400881       -5.0350161340
 H        -9.1299407092        2.3076660473       -5.1000243585
 H        -3.4242394432        1.8435919009       -3.9259106199
 H        -4.2576752673        1.7609974330       -2.3874494909
 H        -3.0215694604        3.9629022507       -4.0362110577
 H        -2.8184616691        3.7755796887       -2.2464088429
 H        -2.3135079495        6.4436306151       -0.5215307987
 H        -3.0930667986        7.5436037415        0.6295828211
 H        -2.8591009195        8.1774532778       -0.8331157062
 H        -2.9767536741        7.9270465904       -3.3957662588
 H        -2.9564132791        6.3748204670       -4.2795914969
 H        -2.2277333575        6.4089105783       -2.7216285302
 H        -5.1530055593        7.7585642796       -4.1084490880
 H        -6.3074583385        7.4097786535       -2.7468022301
 H        -5.8749380033        6.1809163504       -4.0537176585
 H        -6.9473532558       -0.3631207287       -2.7616216015
 H        -6.6359462667        0.9569811394       -1.5936104812
 H        -5.2654056083        0.2535498767       -2.5441919444
 H        -5.7434254494        0.4376065772       -5.5409669442
 H        -7.2235563677        1.3286892157       -5.7435574790
 H        -7.2375505912       -0.2169670165       -4.9069395374
 H       -11.6419898670        5.4399871356       -5.5097751632
 H       -10.7134682612        6.6575986116       -6.2956470095
 H       -12.0988404826        7.0170166855       -5.3021949286
 H        -8.7353797003        8.0661110754       -3.6863019439
 H       -10.0341217387        8.8112859535       -4.7639942646
 H        -8.8424050486        7.7186404647       -5.3007127655
 H       -10.7702799601        8.8564296674        1.7740295434
 H       -10.0956936415        7.8989605969        3.0007402181
 H       -11.5595743195        7.3943073630        2.1487813731
 H        -7.9587958470        8.4466542306        1.2521253091
 H        -7.4530675823        6.8407347345        0.7923249772
 H        -8.0449616802        7.1776664135        2.4785673881
 H       -11.0031155489        0.5755925282        0.5865119307
 H       -11.9204808885        1.2634186760       -0.7944359887
 H       -12.2067072955       -0.4266968748       -0.1339784587
 H       -14.4264272004        1.0978678939       -0.3448863070
 H       -15.1041044779        1.5612241960        1.1607798769
 H       -14.5743818027       -0.1321879002        0.8901446185
 H       -17.3082852585       -0.0741128702        6.8583775286
 H       -16.7964979577       -0.6740882248        8.4598440828
 H       -17.2831391238       -1.7339185851        7.1023842842
 H       -14.7804184798       -0.0890627311        8.9251718894
 H       -14.1796319802        0.9667042109        7.6820029955
 H       -13.3196701232       -0.5379697193        7.9372084588
 Na       -7.3752898874        5.3061203143       -1.0867274476
