117

 C       -13.2217624058       -1.6038211777        8.4668030382
 C       -13.6828498126       -1.2823989792        7.0700776544
 O       -13.4456421236       -1.9403029167        6.1063397157
 C       -14.6483142299       -0.0530132948        7.0400570563
 C       -14.9249755769        0.3027654946        5.5583509878
 O       -15.9392221371       -0.0902709843        4.9732164112
 C       -13.7027787825        0.7476742234        4.8230077952
 C       -13.9181002713        0.6576063168        3.3227699343
 C       -12.6794515283        1.1477739186        2.5033911322
 O       -11.5643896609        1.1545262839        2.9251304985
 C       -12.8921565960        1.1785726065        0.9206319214
 C       -12.7166339320        2.6177561052        0.4276319995
 O       -13.6600297844        3.1989535173       -0.0488480052
 C       -11.3844161980        3.2984010340        0.6254121448
 C       -11.4104275471        4.7914415473        0.2954430511
 C       -10.0569958879        5.3469882112        0.0547655536
 O        -9.1823907856        4.6725888534       -0.4606225554
 C        -9.8327327356        6.9018657677        0.4610561187
 C        -9.6139765557        7.7015448742       -0.8902370255
 O        -8.6607579839        7.4844025806       -1.5938398567
 C       -10.5263587319        8.8726493109       -1.3282826785
 C       -10.9419559297        8.6574453758       -2.7900216556
 C       -11.4528267650        7.1804422764       -3.1250072653
 O       -11.9421955620        6.5121163762       -2.2343302738
 C       -11.0764486032        6.4350513388       -4.4733052150
 C        -9.7493754088        5.5938655083       -4.0311425891
 O        -8.7515785277        6.2570349973       -3.8790507108
 C        -9.9499901901        4.0842524241       -3.9057534125
 C        -8.7173060747        3.2845477820       -4.3669377167
 C        -8.0644832982        2.5564091647       -3.1915926270
 O        -7.9125421738        3.1583831524       -2.1578205391
 C        -7.3848304995        1.2365420549       -3.3460600430
 C        -5.7491583059        1.5773167737       -3.4402815416
 O        -5.2181638878        1.9456716318       -4.4395395664
 C        -5.1001059854        1.7190115596       -2.0790824603
 C        -3.8663057426        2.7137796273       -2.0777541845
 C        -4.4199177748        4.1066883392       -1.3985578922
 O        -5.5262891275        4.1449658275       -0.8947362250
 C        -3.4414032378        5.3892115589       -1.4176990938
 C        -4.2891520013        6.6410558880       -0.8539355593
 O        -5.4220373370        6.7584325826       -1.2813490390
 C        -3.6350803362        7.7165705573        0.0200665209
 C        -2.3171473320        5.0181463297       -0.4940702805
 C        -3.0970853913        5.8940491781       -2.8396482528
 C        -7.6984563865        0.2538507907       -2.1872797465
 C        -7.7704071783        0.5204154368       -4.6865457378
 C       -12.2738116579        5.5828776579       -4.9344762359
 C       -10.6284923062        7.3736215055       -5.6402582231
 C       -10.9562700852        7.5442528474        1.3156014587
 C        -8.4401095899        7.0226438496        1.1233442666
 C       -11.8436405633        0.1954228706        0.3145912611
 C       -14.3486964326        0.7867924727        0.5318796189
 C       -15.9345105458       -0.2422162297        7.8149167489
 C       -13.9124415255        1.0808636906        7.7067042552
 H       -12.3422353045       -0.9980581798        8.5955232958
 H       -12.8091624894       -2.6511831009        8.5811767819
 H       -13.9700891238       -1.4617362180        9.3068755457
 H       -12.8225659746        0.1878384870        5.0260104501
 H       -13.4290666874        1.7737081851        5.1478800266
 H       -14.9015571073        1.1153023543        3.0964569996
 H       -14.0211056122       -0.3461528425        3.2772166255
 H       -10.6925149276        2.7939671707       -0.0469829782
 H       -11.0547111584        3.2201989512        1.6827948305
 H       -11.8674331194        5.3014931596        1.1410909978
 H       -12.0679842793        4.9707932837       -0.6519655723
 H       -10.0904741443        9.8502666902       -1.2304901005
 H       -11.4666888347        8.8249210632       -0.7065340012
 H       -10.1704678396        8.9809636127       -3.4562770286
 H       -11.8197559629        9.2839238923       -2.9649394977
 H       -10.9109597640        3.8812635798       -4.4189711205
 H       -10.2455227420        3.8508350631       -2.8742232561
 H        -7.9792360413        4.0883097657       -4.6166951352
 H        -8.7684501038        2.6268825050       -5.2468459641
 H        -4.7404224966        0.7851950470       -1.7630591937
 H        -5.8543106426        2.1126700199       -1.3179884380
 H        -3.5649970424        2.8283101276       -3.1066861860
 H        -2.9940749569        2.2552314601       -1.6474669847
 H        -3.0724007279        7.3358615023        0.9571680199
 H        -4.3923157182        8.3978300632        0.1774108793
 H        -2.7415460521        8.0377089833       -0.5039075174
 H        -1.7137060525        5.8810958949       -0.1276100831
 H        -1.6638607088        4.2432449206       -0.9562224864
 H        -2.6262544112        4.3678083464        0.3303197267
 H        -2.5677196716        6.8368044455       -2.5880171374
 H        -4.0277583279        6.0730901880       -3.3951380078
 H        -2.4271803860        5.1681077223       -3.3732787282
 H        -8.6039315908       -0.3741329784       -2.3698562003
 H        -7.8887984393        0.7730385723       -1.2481887289
 H        -6.8498970764       -0.3874606805       -1.9467951742
 H        -7.2868071919       -0.4685483987       -4.9243862723
 H        -7.5569699995        1.1598929018       -5.5775631901
 H        -8.8150148282        0.2678354230       -4.7353212947
 H       -12.5883663062        4.9222421182       -4.1293873277
 H       -12.0656615865        4.9828053847       -5.7862523763
 H       -13.0452663968        6.2703728485       -5.1703514564
 H        -9.6470590098        7.8148700490       -5.3173287636
 H       -11.4585037813        8.0092141399       -5.8816726224
 H       -10.3546388869        6.8247937065       -6.5170144936
 H       -10.5908186107        8.5351805629        1.5120601520
 H       -11.1319524270        6.9591059417        2.1902255525
 H       -11.8593605980        7.6435122409        0.6947477946
 H        -8.0868142201        8.0292386549        0.9582975234
 H        -7.6679986320        6.4388239042        0.6083674888
 H        -8.4474169521        6.7943680704        2.1712862942
 H       -10.8563204032        0.3919558829        0.6921445593
 H       -11.6989700933        0.1934293407       -0.8053487193
 H       -12.1868835372       -0.8020296169        0.5654002251
 H       -14.4014981809        0.6387919099       -0.5425128223
 H       -15.1254090050        1.5491240066        0.8604860452
 H       -14.5644912262       -0.2796498956        0.8362912255
 H       -16.4290065936        0.6662205343        7.9741688252
 H       -15.7998326527       -0.8085326201        8.7363466441
 H       -16.6314705205       -0.8315879869        7.2441730814
 H       -13.8354903168        0.8539708020        8.7525503464
 H       -14.4671574663        2.0303274344        7.5622802159
 H       -12.9360120103        1.2691661268        7.2605128412
 Na       -7.3238768200        5.5213441781       -1.8395910716
