117

 C       -13.4513626317       -2.1484679698        8.4024670429
 C       -13.9543850347       -1.5623674793        7.0935466574
 O       -13.7082606033       -2.2321504972        6.1217367083
 C       -14.6877052216       -0.2029778175        7.0533416025
 C       -14.9950335384        0.1301064895        5.5679644188
 O       -16.1266937304        0.0103927546        5.1614584592
 C       -13.9166869340        0.6931501095        4.6685243486
 C       -14.0653038842        0.4322690423        3.0705272372
 C       -12.7557197928        0.9220308472        2.3329981047
 O       -11.8465459817        1.5290072374        2.9111995714
 C       -12.8129357670        1.0443887827        0.7074647670
 C       -12.7148570683        2.5945218315        0.5625228336
 O       -13.7284025708        3.3347833833        0.6412984135
 C       -11.3457161378        3.2822371584        0.5012740310
 C       -11.3307020262        4.7444929484        0.6949333139
 C        -9.9549280931        5.3845688367        0.3911930537
 O        -9.0051664456        4.7980106436       -0.1087458062
 C        -9.6331967684        6.9427887511        0.6714157532
 C        -9.6059186388        7.7048660272       -0.7319283261
 O        -8.7597944680        7.4382553040       -1.5435116266
 C       -10.7656155038        8.7026934759       -1.1524617568
 C       -10.9271932029        8.5698998123       -2.6542955988
 C       -11.4638405996        7.1729290269       -2.9746460346
 O       -12.0088612729        6.4638079025       -2.1655185646
 C       -11.0373200541        6.5480144338       -4.4666505784
 C        -9.8600221752        5.4722333299       -4.2279707671
 O        -8.7496409594        5.9649817446       -4.0380847798
 C       -10.1142137075        4.0125267083       -3.9705220366
 C        -8.9766167408        3.0400396320       -4.4664497636
 C        -7.9602516119        2.6549960807       -3.3843139320
 O        -7.8508731032        3.1835570873       -2.2995834336
 C        -7.1703230015        1.2147830268       -3.4368704789
 C        -5.6560747967        1.7483908427       -3.5337095959
 O        -5.3029857901        2.1648446564       -4.6162166437
 C        -4.7637292994        1.9178379482       -2.3199201531
 C        -3.8537542019        3.1598474605       -2.4933427060
 C        -4.3232722854        4.3423043468       -1.6183601875
 O        -5.3857036803        4.2671487437       -0.9603882637
 C        -3.5046436707        5.6052469804       -1.5729932059
 C        -4.2747939907        6.6941068435       -0.8198837476
 O        -5.4381252262        6.9047260582       -1.2168597223
 C        -3.8104685111        7.4783120958        0.4049439540
 C        -2.1413456352        5.3818741497       -0.9891066300
 C        -3.4154505105        6.0402470052       -3.0887086472
 C        -7.4294409556        0.4149704657       -2.1084480692
 C        -7.5089514674        0.3318636028       -4.6014686996
 C       -12.2449960515        5.8389360682       -5.0256655060
 C       -10.4872368159        7.5569411256       -5.4748364439
 C       -10.6719394008        7.7236251026        1.5645327411
 C        -8.2164880593        7.0362653947        1.2714773971
 C       -11.5343549702        0.3661926048        0.2082423162
 C       -14.0773210589        0.4560341662        0.0615905783
 C       -16.0322212794       -0.3996338228        7.8427261992
 C       -13.9697952865        0.9662982825        7.7455200176
 H       -13.4924648705       -1.3421218456        9.1683850080
 H       -12.4382612068       -2.4559914788        8.3078400974
 H       -13.9596421473       -3.0455602734        8.7682260153
 H       -12.9342059212        0.5052102023        5.1053003268
 H       -13.9525142996        1.8238492361        4.7650993247
 H       -15.0058497217        0.9704454977        2.7190065669
 H       -14.3375985583       -0.5448586317        2.8587404185
 H       -10.9383250162        3.1771339834       -0.5188541421
 H       -10.7288474228        2.7819901349        1.2946584971
 H       -11.6208508064        4.9839505558        1.6839017702
 H       -12.0541650013        5.1886973498       -0.0565001084
 H       -10.3718003382        9.6887958590       -0.9628332052
 H       -11.7579704934        8.6299154435       -0.6393100603
 H        -9.9873334345        8.6205988136       -3.1701058503
 H       -11.4513033187        9.3390556778       -3.1297502605
 H       -11.0760286883        3.6701039053       -4.3926515092
 H       -10.2494895563        3.9689744269       -2.8735021606
 H        -8.3589200674        3.3895124414       -5.3078301858
 H        -9.3714689125        2.1180325374       -4.8916914178
 H        -4.2364578504        0.9994028443       -2.2219553794
 H        -5.4060309529        2.1023121857       -1.3724496723
 H        -3.7603839766        3.3931112260       -3.5475609323
 H        -2.8507998686        2.8898919116       -2.2089332257
 H        -2.8453414249        7.1093280250        0.8126409497
 H        -4.5967560480        7.4191832758        1.1071910663
 H        -3.3906677225        8.4285032332        0.0973842998
 H        -1.4553869349        6.2300793724       -1.0022516795
 H        -1.5639955118        4.5486328306       -1.4339714188
 H        -2.2726399477        5.1591123957        0.0567737710
 H        -2.9379466674        7.0151872889       -3.0167418962
 H        -4.4303389940        6.2295627894       -3.3561373423
 H        -2.8907983978        5.3671223449       -3.7507275464
 H        -8.4673310249        0.0594565812       -2.1098394019
 H        -7.2090984561        0.7862034467       -1.1114928499
 H        -6.8277965192       -0.4717996760       -2.2752474259
 H        -7.0123610763       -0.6476975829       -4.4823133416
 H        -7.1629153213        0.6949302436       -5.5732817726
 H        -8.5307172942        0.0586019884       -4.7425003380
 H       -12.6959274299        5.1804534277       -4.2453610831
 H       -11.9119268054        5.2300180809       -5.8952023203
 H       -13.0793020322        6.5028422229       -5.2922323466
 H        -9.5193812905        7.9370158247       -5.0666279814
 H       -11.1924709718        8.4011402525       -5.6438101005
 H       -10.3044492810        7.0342522765       -6.3808208006
 H       -10.3703417564        8.7505278305        1.6161009886
 H       -10.6812827888        7.2629145432        2.5594038913
 H       -11.6237891607        7.5877266358        1.0863905726
 H        -8.0060801119        8.0265608055        1.7438069032
 H        -7.4534533217        7.0165583783        0.4988973327
 H        -8.1821537012        6.2833106939        2.0750630180
 H       -10.7236202765        0.4374679917        0.9475650376
 H       -11.2083414832        0.6922702369       -0.7967596554
 H       -11.6115582041       -0.6957144481        0.1942946546
 H       -14.0455754106        0.7525948472       -0.9507067091
 H       -15.0090574217        0.9315826403        0.4082486852
 H       -14.2093424205       -0.6097815857        0.2143171227
 H       -16.6531061078        0.4664894757        7.6453713259
 H       -15.7642961822       -0.3460554682        8.9199549408
 H       -16.6801759756       -1.2777693270        7.6501816798
 H       -13.8340562360        0.7778940037        8.7877338899
 H       -14.6660659721        1.8127169111        7.6495556471
 H       -13.0844103054        1.2314282336        7.2263935296
 Na       -7.3916712695        5.4256095388       -1.7160775671
