117

 C       -12.8946160758       -1.0313410209        8.8802848701
 C       -13.2254007422       -0.8392923511        7.3711388438
 O       -12.5316277572       -1.4123964316        6.5286187456
 C       -14.3501499091        0.1795657242        7.1109991822
 C       -14.7262242371        0.3119099080        5.5789123616
 O       -15.8587018648        0.4586297089        5.2335003980
 C       -13.5128959037        0.3624024533        4.6223530575
 C       -13.9347946304        1.2140869596        3.4255949802
 C       -12.7437650510        1.4960495311        2.4318381004
 O       -11.6614580169        1.9155734091        2.8003868010
 C       -12.9914443519        1.2603459871        0.8910955050
 C       -12.7111600885        2.6165952808        0.1314954553
 O       -13.5959919533        3.0337368539       -0.5815367115
 C       -11.3586584722        3.3540049138        0.3375312320
 C       -11.7166627037        4.8912513186        0.4263229442
 C       -10.6052181186        5.7323647097       -0.0382988263
 O        -9.9008472389        5.2876359888       -0.9371119726
 C       -10.2091688668        7.1399901732        0.5430088431
 C        -9.5910278436        7.9079787860       -0.6577714521
 O        -8.4130093513        7.7272731154       -0.9694214167
 C       -10.4812924803        8.8823617399       -1.5213702202
 C       -10.3797006000        8.3979987322       -2.9463967958
 C       -11.2785407457        7.1650444910       -3.2425202376
 O       -12.1490497364        6.7572633789       -2.4753825717
 C       -10.8989201004        6.3946319821       -4.5964309106
 C        -9.6750697610        5.5593908242       -4.1454000778
 O        -8.5865524135        6.0011328886       -3.8006251107
 C        -9.7423600248        4.0275938869       -4.2658046104
 C        -8.3759132872        3.3113725812       -4.5124856176
 C        -8.0126996315        2.3981611276       -3.3640693866
 O        -8.1641169270        2.7612192934       -2.1841614985
 C        -7.2596441208        1.1124318151       -3.5744885621
 C        -5.6490380733        1.3190201517       -3.1003339524
 O        -4.8065185274        1.3065610145       -3.9887626879
 C        -5.3199881944        1.3578216576       -1.6208517167
 C        -4.1854847597        2.3062860008       -1.1753493540
 C        -4.6753024390        3.7284970875       -1.1262903695
 O        -5.8607271939        3.9831042185       -0.9979368376
 C        -3.5818317389        4.8714614786       -1.1475780348
 C        -4.3442850936        6.2686147194       -1.4643316322
 O        -5.5759366701        6.4498300562       -1.6444007881
 C        -3.5347181609        7.5644360318       -1.3111572233
 C        -3.0068816884        4.9480443397        0.3200580650
 C        -2.4796373578        4.6169686906       -2.2624764983
 C        -7.9977609818        0.1193888261       -2.6020132392
 C        -7.2992990347        0.5567025018       -5.0410835582
 C       -12.1229279346        5.5201510080       -4.9640001393
 C       -10.5374825592        7.3301466268       -5.8087875023
 C       -11.3649831843        7.8685203496        1.1572002200
 C        -9.1458293996        6.8989212688        1.6434589852
 C       -12.0190819477        0.2828972386        0.1812091449
 C       -14.4291354755        0.8623775912        0.6328279329
 C       -15.6049729719       -0.1394779348        7.9338611799
 C       -13.8358979100        1.5559052470        7.6311392284
 H       -12.4079534478       -1.9689483900        9.0765687267
 H       -13.7461410441       -1.0260924735        9.5469382781
 H       -12.2358853630       -0.2569322612        9.1541293802
 H       -13.1150431784       -0.5929932140        4.2285589729
 H       -12.7539175336        0.9202181182        5.1785899955
 H       -14.4045254902        2.1228288866        3.7611765844
 H       -14.7035479245        0.5940544639        3.0085865690
 H       -10.6723577387        3.2405829843       -0.4696652250
 H       -10.7841468629        3.0390076748        1.2152945198
 H       -11.9607277956        5.2143375304        1.4045055957
 H       -12.6419340885        5.0976409939       -0.1341340025
 H       -10.2812203915        9.9270382923       -1.3981518266
 H       -11.5147939611        8.7695978194       -1.1369679796
 H        -9.3226759791        8.0392736349       -2.9848244451
 H       -10.6000603563        9.2472056530       -3.6953355119
 H       -10.4816354698        3.6564075150       -5.0133062176
 H       -10.1519238533        3.7290644389       -3.3246320102
 H        -7.5447270835        3.9865992221       -4.6610952698
 H        -8.4202809110        2.6369716960       -5.3689329567
 H        -5.0960826089        0.4088787360       -1.1691556684
 H        -6.2293507447        1.7575760853       -1.1620702441
 H        -3.3174301566        2.1560477419       -1.8503501768
 H        -3.8248838306        1.9857551188       -0.1538537802
 H        -3.8482850066        8.0833614015       -0.4198491442
 H        -3.7556847907        8.2065074314       -2.2080505815
 H        -2.5124029925        7.4611370493       -1.5691330484
 H        -2.6496125302        5.9310980251        0.5706756867
 H        -2.1278145175        4.3668994293        0.3769182963
 H        -3.7080915716        4.7131726170        1.0967487534
 H        -1.7035049345        5.3375376260       -2.2843699057
 H        -3.0213764592        4.6444384360       -3.1909975880
 H        -2.0532157593        3.6444368719       -2.1005439244
 H        -9.0371737286       -0.1607061854       -2.8259058650
 H        -8.0547860868        0.4111786197       -1.5835078526
 H        -7.4880509475       -0.8427705172       -2.5833773226
 H        -6.5969574262       -0.2867098660       -5.1040193541
 H        -7.0559816039        1.2690770634       -5.8149662117
 H        -8.2838227859        0.2167039008       -5.2591149004
 H       -12.3976843931        4.9360182450       -4.0445892935
 H       -11.9521587900        4.9089972044       -5.8636500643
 H       -12.9945786849        6.1823268405       -5.1300536438
 H        -9.7375893009        8.0087122894       -5.5064582925
 H       -11.3342209978        7.9628396439       -6.0330902174
 H       -10.3266833279        6.6547794085       -6.6415892732
 H       -11.0353792783        8.8912087350        1.4389936843
 H       -11.6095260592        7.3634497021        2.0560583812
 H       -12.3231432731        7.9159187150        0.5480872191
 H        -8.7588211407        7.8759565496        1.9380112333
 H        -8.2947894197        6.2393064439        1.2666412088
 H        -9.3563977744        6.4198832789        2.5834341152
 H       -11.0147285174        0.3928720949        0.4561660163
 H       -12.1457126080        0.3469211222       -0.9446270574
 H       -12.2307430948       -0.7323089663        0.5001289020
 H       -14.5744839338        0.9843613370       -0.4087894312
 H       -15.1700075774        1.3887473797        1.1281807359
 H       -14.4753722999       -0.1426671819        0.9612773722
 H       -16.2991825281        0.6916514038        7.8777131767
 H       -15.5266915961       -0.2372678575        9.0462748732
 H       -16.1428871330       -1.0077574375        7.5238496440
 H       -13.5161622699        1.5019530695        8.6354926461
 H       -14.6557086817        2.2561090767        7.6327058861
 H       -13.0001713119        1.9249097583        7.0197371811
 Na       -7.6364452575        5.3686607519       -1.7984283045
