117

 C       -11.0303042541        6.0695697594        0.6535778921
 C       -11.1374588115        4.8238073684        1.4722691103
 O       -10.8769143086        3.6535461890        1.0841694475
 C       -11.2717552203        5.1817752201        3.0873535698
 C       -11.4634663534        3.9486158563        3.9897984871
 O       -10.5534445721        3.1367796631        4.0662876240
 C       -12.6605390625        3.9119172997        4.9108609905
 C       -13.8800358853        3.1418272847        4.2533845181
 C       -14.0500165365        3.0748049224        2.7411622814
 O       -13.5018612641        3.9488900124        2.0838496986
 C       -14.6801675050        1.8609436499        1.9157016823
 C       -13.6154443254        0.7563153674        1.7799295914
 O       -12.7331522505        0.7198184363        2.5815560391
 C       -13.7435073282       -0.1882522862        0.6288434112
 C       -13.0148979667       -1.5668811868        0.6082589920
 C       -11.6266913469       -1.3287836373       -0.0235553389
 O       -11.1832079395       -0.1980313884       -0.0545883405
 C       -11.0045339603       -2.4677651161       -0.9700292049
 C        -9.6663153212       -2.9338567889       -0.1252122335
 O        -9.7066325348       -3.9332072364        0.5312270035
 C        -8.6385125186       -1.7488033917        0.1057475093
 C        -8.2865186204       -1.7340534982        1.6378134834
 C        -8.2039736388       -0.1776426245        2.3056883680
 O        -8.7565933378        0.0554172855        3.3497278896
 C        -7.2770706441        0.8190032841        1.6714614537
 C        -7.8662398674        1.6334890608        0.4036251842
 O        -9.0455148711        1.5730132749        0.1698763617
 C        -7.0007295363        2.6858646336       -0.3264624916
 C        -7.7055735798        4.0664343305       -0.2071663397
 C        -6.7638389397        5.1490782536       -0.8826889549
 O        -5.9535896019        5.8383909320       -0.2928034099
 C        -7.0407930085        5.5784915630       -2.4190376548
 C        -8.2418486638        6.5092607384       -2.2652944416
 O        -8.8401439148        6.5567760684       -1.2106943242
 C        -8.6572076400        7.2631079273       -3.5088853394
 C        -8.1728100595        8.7927192809       -3.4988262696
 C        -8.7677757287        9.5513195547       -4.8159933636
 O        -9.9246817377        9.4252861363       -5.0886520508
 C        -7.6671748517       10.5392314808       -5.6805790636
 C        -7.2209490349        9.7417462102       -7.0033533568
 O        -7.6122630586        8.6424797220       -7.2852073349
 C        -6.2985719873       10.5874694383       -7.8464559577
 C        -8.4684543138       11.7047875480       -6.3546855961
 C        -6.5152990770       11.2713739368       -4.8107177590
 C        -5.7475647046        6.3055472305       -2.9275155670
 C        -7.3272443553        4.3722291005       -3.2971014048
 C        -7.2388536587        1.9642075903        2.7157353028
 C        -5.7440209629        0.4636038586        1.3955558714
 C       -12.0395177007       -3.5401492207       -1.4038162489
 C       -10.4187125128       -1.8359312824       -2.3054528221
 C       -15.9849179053        1.2570800207        2.5176874179
 C       -14.9926558206        2.5290528383        0.4229341833
 C        -9.8752625646        5.7436458476        3.4243457011
 C       -12.3285714119        6.3036011660        3.3412593333
 H       -10.3043957003        6.7893926495        0.9944906976
 H       -12.0352671302        6.3638579687        0.5859560802
 H       -10.7567722574        5.7966077722       -0.3861461187
 H       -12.8740785706        4.8587231141        5.3222441942
 H       -12.3185769201        3.3599476994        5.7444014481
 H       -14.7870250426        3.5884436277        4.6166352934
 H       -13.9590814486        2.2012612929        4.7527638691
 H       -13.2607005168        0.3812245414       -0.2086281085
 H       -14.8393028147       -0.2697242339        0.4337878120
 H       -13.6427391494       -2.1090432516       -0.1607181803
 H       -12.9706394443       -2.0678946018        1.5962154536
 H        -9.1741591013       -0.7869038181       -0.2182818344
 H        -7.7784091124       -1.8000253748       -0.5218929951
 H        -7.3955228957       -2.2157551361        2.0085169940
 H        -9.1804024488       -2.0756195909        2.2146478692
 H        -6.7533525251        2.4797612943       -1.3324311641
 H        -5.9337661748        2.8499395990        0.0870778331
 H        -7.8187640802        4.2317733919        0.8679738407
 H        -8.6504108120        4.0329102726       -0.7876644830
 H        -9.7185959894        7.3125234619       -3.7427643361
 H        -8.1240950032        6.7947352155       -4.3623943273
 H        -7.0877747288        8.9687113045       -3.4208280322
 H        -8.6408265661        9.3831812394       -2.6910093028
 H        -6.7584129376       10.4185650348       -8.9056177172
 H        -5.3305840087       10.2173360776       -7.8525839009
 H        -6.6316044479       11.6038180196       -7.7499960545
 H        -7.7450480198       12.5808708863       -6.6430939028
 H        -9.2070790093       12.1084766450       -5.6064276551
 H        -9.0828203468       11.2169907876       -7.2107569880
 H        -5.9220576068       11.5632619214       -5.6146325927
 H        -6.2716672515       10.5096879423       -4.0381095785
 H        -6.9667903586       12.1478346110       -4.4632449849
 H        -5.9939025752        7.2818438451       -3.4510021170
 H        -4.9371068242        5.7301420589       -3.2575515100
 H        -5.2718881809        6.8063892673       -2.0570876465
 H        -6.6201691713        3.6046916494       -3.2004020458
 H        -7.4569214551        4.7355031802       -4.2850155337
 H        -8.3817864205        3.9557916471       -2.9987550621
 H        -6.3497882293        2.5917641019        2.7258346157
 H        -7.3611234467        1.6110947262        3.8023938484
 H        -8.0458513428        2.6496161388        2.6419200166
 H        -5.1074379838        1.3885389376        1.5899657250
 H        -5.5640387154        0.2040878708        0.3415508129
 H        -5.2510356102       -0.2496150601        2.0787552278
 H       -12.8832097767       -3.0752648578       -1.9443540573
 H       -12.3704529592       -3.9512877360       -0.4395959562
 H       -11.4984901503       -4.3043130902       -2.0534717901
 H       -11.0649571536       -1.1014378758       -2.8013438032
 H       -10.0487741319       -2.5539940270       -2.9917659286
 H        -9.5892050477       -1.1496371373       -2.1534369642
 H       -16.7280740498        2.0137313094        2.7779987174
 H       -15.8191598942        0.7099721172        3.4863236647
 H       -16.4136921629        0.4522937747        1.8973428604
 H       -15.6750375732        3.3806048627        0.7302973924
 H       -15.5865998881        1.7829192116       -0.1695143439
 H       -14.1805315956        3.0218783797       -0.0091135025
 H        -9.7671766979        6.8833280452        3.5268866246
 H        -9.1501145971        5.2981914808        2.7176498983
 H        -9.6552024992        5.2848467967        4.3554229784
 H       -12.0576693419        6.9737272106        4.1996018590
 H       -13.3376769011        6.0812130300        3.6726312761
 H       -12.4536504309        6.9832537516        2.5204469570
 Na      -10.6340929467        1.1859861018        1.8106421050
