117

 C       -12.2537486473       -0.3922016867        9.0599827803
 C       -12.8597033371       -0.2408576747        7.6664834564
 O       -12.2901109368       -0.8071644825        6.7747895388
 C       -14.0690247346        0.7126602514        7.4228267673
 C       -14.5076157462        0.4348165224        5.9187869484
 O       -15.6260131656        0.0599053782        5.6804007323
 C       -13.5559109345        0.5938440757        4.7100840429
 C       -14.2329433690        1.1512944794        3.4321656497
 C       -13.2058296367        1.4485657181        2.3780503873
 O       -12.1890246618        1.9864965661        2.7351568726
 C       -13.3190837920        1.1797484311        0.7896941066
 C       -13.3429181744        2.7196940600        0.2095023732
 O       -14.3258192150        3.3521975610        0.2140816034
 C       -12.0130748681        3.4108739339       -0.2181437684
 C       -12.1053554363        5.0260469434       -0.1720358164
 C       -10.6296354763        5.5073066822       -0.2831322752
 O        -9.7332662054        4.8056996211       -0.7626047186
 C       -10.3024768458        6.9797633307        0.2224537935
 C        -9.2740253950        7.6511422937       -0.7950593605
 O        -8.1444117320        7.1744885226       -0.9483701490
 C        -9.7601881656        8.8896651277       -1.6160627144
 C        -9.7779590196        8.5004020162       -3.1409302900
 C       -10.6786514713        7.3190239948       -3.4019717755
 O       -11.4534708575        7.0294439450       -2.4886921427
 C       -10.5805114650        6.3979304593       -4.6714956814
 C        -9.3883392564        5.3654316375       -4.5354638827
 O        -8.3713449200        5.8650808057       -4.0308180327
 C        -9.4920823108        3.9739645775       -5.0539720400
 C        -8.1312514209        3.2434486770       -5.0233613089
 C        -7.8722327506        2.6374551396       -3.6240312117
 O        -8.3402728881        3.0527403659       -2.5504005172
 C        -7.1315163857        1.2755466436       -3.5399707247
 C        -5.9229202333        1.4332484698       -2.7084894106
 O        -4.8607356635        1.7292008458       -3.2828458635
 C        -6.0093083055        1.4458484440       -1.2537018258
 C        -4.7718473038        2.1526856908       -0.6284540728
 C        -4.9688129099        3.6885535790       -0.4196451751
 O        -6.0789677413        4.0562752429       -0.0347338831
 C        -3.9036223044        4.7395840750       -0.8593911825
 C        -4.5349597734        5.5399025166       -2.0032524450
 O        -5.4326642839        5.0728976512       -2.6484476061
 C        -3.7508027071        6.7566400012       -2.4643213041
 C        -3.6018013631        5.6600759937        0.3615816452
 C        -2.6237303013        4.0360003553       -1.3225505989
 C        -8.2448275823        0.4029539384       -2.8575017004
 C        -6.7505875838        0.6025687461       -4.8715486085
 C       -11.9844490060        5.7689922779       -4.7649617360
 C       -10.2522811856        7.2911813694       -5.9631491934
 C       -11.5144043945        7.9075188439        0.5243339338
 C        -9.6285317754        6.7913244783        1.5714623857
 C       -11.9682017498        0.4318883976        0.4623609968
 C       -14.4937910680        0.3448671689        0.2796885170
 C       -15.2106915843        0.2465332715        8.4067709283
 C       -13.6470212038        2.1915476175        7.5802320906
 H       -12.8833718383       -0.4763386089        9.8629550070
 H       -11.5302902999        0.4041616276        9.1583131455
 H       -11.7344778025       -1.3522259704        9.0433936753
 H       -13.1302685745       -0.4012035372        4.4388760177
 H       -12.5695058451        1.1254732838        4.7729937546
 H       -14.7292267263        2.0748646917        3.6363884869
 H       -15.0300020979        0.5053310344        3.0252425687
 H       -11.5677999936        3.0995583350       -1.1946853822
 H       -11.2627725568        3.0699735233        0.5316364129
 H       -12.5372767765        5.2788727255        0.8074953621
 H       -12.7028766520        5.4577885702       -0.9210953553
 H        -9.1573426063        9.8093017334       -1.5032902050
 H       -10.7418932957        9.1253479022       -1.3139393485
 H        -8.7605977076        8.2925967377       -3.5409343138
 H       -10.0920296086        9.4436444355       -3.6341605823
 H        -9.7951748294        4.0240419866       -6.0994535080
 H       -10.2546273480        3.5011112751       -4.4341624179
 H        -7.2992586250        3.9287976180       -5.1720033399
 H        -8.0380319499        2.4903904460       -5.7776136589
 H        -6.0640174736        0.4139817198       -0.8041416587
 H        -6.9290949102        1.8355329448       -0.9432917021
 H        -3.9391991712        1.9091884900       -1.3044829871
 H        -4.7148186713        1.5806363528        0.3476420084
 H        -4.1305428042        7.6826217720       -1.9709410965
 H        -3.8501630278        6.9240186558       -3.4928460140
 H        -2.7029162139        6.5760283159       -2.1415095350
 H        -3.4840204344        6.6678838045       -0.0910935624
 H        -2.6698285888        5.3283142311        0.8835076666
 H        -4.3825775389        5.6276174027        1.1352997323
 H        -1.7659847752        4.7582956450       -1.3960300233
 H        -2.6768347832        3.4695326096       -2.2609649788
 H        -2.2734190772        3.4404829421       -0.4618100967
 H        -9.1033304283        0.2192748761       -3.4656665602
 H        -8.5813812339        0.6637549954       -1.8378185880
 H        -7.8122813954       -0.5867871299       -2.6921448781
 H        -6.3627159815       -0.3866390184       -4.6071065291
 H        -5.9027897757        1.1575606311       -5.3215442920
 H        -7.6821255572        0.5330925182       -5.4930253866
 H       -11.9711234636        4.8541336145       -4.2344788610
 H       -12.2523676178        5.5064662850       -5.7794310055
 H       -12.7326478837        6.3974494758       -4.3237510177
 H        -9.3086572938        7.7611739652       -5.7703063827
 H       -11.1039884601        7.9596288925       -6.2476965514
 H       -10.0422634224        6.7243406831       -6.8582649567
 H       -11.3352552834        8.9137905226        0.8354994098
 H       -12.1832146232        7.4214401378        1.2656479983
 H       -12.1062740375        7.9986860253       -0.3270788067
 H        -9.5958182319        7.7303763567        2.1465105059
 H        -8.6092113253        6.5568951646        1.6239290461
 H       -10.1796381840        6.0855236540        2.2151193296
 H       -11.0016803853        0.9360866197        0.7972148270
 H       -11.8750858157        0.3151972786       -0.5870056714
 H       -12.0824622120       -0.6202777765        0.7940974472
 H       -14.2579119364        0.0454426308       -0.7520164453
 H       -15.4198178746        0.9713415494        0.3266810797
 H       -14.5236779200       -0.6268814460        0.7692304722
 H       -16.1106774113        0.8881919827        8.3122110882
 H       -14.9018925684        0.2061732599        9.4143468878
 H       -15.5166875710       -0.7812425439        8.2315463505
 H       -13.3907862725        2.4009204524        8.6547943608
 H       -14.4514839916        2.8797912917        7.3045191674
 H       -12.7416751479        2.4421476893        7.0255075776
 Na       -7.5971468178        5.0221241653       -1.6531678378
