117

 C       -12.5948736395       -0.9309305428        8.9656400175
 C       -12.9841346105       -0.6182404729        7.4724230228
 O       -12.3822409025       -1.1225946412        6.5152328759
 C       -14.1490276322        0.3732962357        7.1834093100
 C       -14.6131968361        0.3112871043        5.6071740504
 O       -15.7612639370        0.3504266246        5.2806876634
 C       -13.5377980026        0.3035800214        4.5138008710
 C       -14.0204542182        1.4288453011        3.4772246201
 C       -12.9255251655        1.5537366743        2.4600341261
 O       -11.8011700116        1.7921902700        2.7177168279
 C       -13.1497542033        1.2904057965        0.8252488404
 C       -13.0063405884        2.6357532111        0.1409874330
 O       -13.9751547132        3.1683311939       -0.2966949659
 C       -11.6915450263        3.4114060276        0.4202285543
 C       -11.8652917164        4.9896811170        0.2764235108
 C       -10.5861377343        5.6532886536       -0.1591557167
 O        -9.7477289122        5.0498650987       -0.8582455387
 C       -10.2676992765        7.0874390034        0.4490912523
 C        -9.4922090212        7.8819378127       -0.6028165442
 O        -8.3849056852        7.4732006341       -0.9351768771
 C       -10.1981659084        8.9641464016       -1.4572091920
 C       -10.1519309872        8.5199955897       -3.0047104022
 C       -11.1367404254        7.3862616166       -3.3112413993
 O       -11.9483250728        6.9893251433       -2.4816142166
 C       -10.8490461628        6.4147196758       -4.6464377346
 C        -9.7000570228        5.4198857269       -4.2656542655
 O        -8.6854446069        5.8541114110       -3.7153340151
 C        -9.7002270417        3.8664126834       -4.6252543456
 C        -8.2949797023        3.3589056383       -4.6293454584
 C        -7.9204870509        2.4355974006       -3.4045335165
 O        -8.1123473730        2.8702782278       -2.2946125881
 C        -7.1769294637        1.0955000603       -3.5033068926
 C        -5.8268589900        1.2419806100       -2.8465273767
 O        -4.8604562336        1.4104478239       -3.6223757396
 C        -5.5089656676        1.2762198877       -1.4059748690
 C        -4.3809226689        2.2669446452       -1.1354861070
 C        -4.8545763466        3.7091629772       -1.0198751850
 O        -6.0424865991        3.8447056336       -0.7918084619
 C        -3.7858497435        4.8398793091       -1.1018797068
 C        -4.3158156954        6.1699172167       -1.7554523731
 O        -5.4107512159        6.3670614190       -2.3056855338
 C        -3.4041587400        7.4113320641       -1.6451025666
 C        -3.3802903688        5.0702809027        0.3605630185
 C        -2.5563948946        4.2654097622       -1.9301393534
 C        -7.9194460376       -0.0461165727       -2.7008431141
 C        -6.9661440215        0.5843963797       -5.0254170789
 C       -12.1386207024        5.6928592588       -4.9437923997
 C       -10.3393591319        7.2185490784       -5.8748036746
 C       -11.5060687558        7.8520812043        0.9976829466
 C        -9.3231319092        6.8394580105        1.6740432976
 C       -11.9677169150        0.3042874609        0.6409575083
 C       -14.4101928915        0.5946170756        0.4371964128
 C       -15.4787940302        0.0917456989        7.9756295267
 C       -13.8262048795        1.8332079211        7.4399047585
 H       -12.7794315878       -1.9445398204        9.2210413375
 H       -13.0995495290       -0.2696200033        9.7381328872
 H       -11.4914289181       -0.8248894094        9.0348079552
 H       -13.4415073902       -0.7418777887        4.2038037279
 H       -12.5462035470        0.6930078014        4.8767601351
 H       -14.3156983904        2.4445995624        4.0064205031
 H       -14.9763069266        1.1351211298        3.1162969795
 H       -10.9197549956        3.0965036764       -0.3489856738
 H       -11.2224054490        3.1070577621        1.3933267932
 H       -12.2735985110        5.4277260623        1.1423072107
 H       -12.6372049332        5.1650319060       -0.5127679698
 H        -9.7403255509        9.9123682404       -1.3055282151
 H       -11.2696489415        9.2048214686       -1.1949735046
 H        -9.1992836135        8.1796796285       -3.3367223484
 H       -10.4629011154        9.3950704007       -3.5181231180
 H       -10.2093842133        3.6598826262       -5.5830797569
 H       -10.2847723464        3.3828753260       -3.8078711379
 H        -7.6261886926        4.2204826487       -4.5264780283
 H        -7.9715138925        2.8515199452       -5.5455433062
 H        -5.1830301680        0.2835336972       -1.1900154325
 H        -6.3518603506        1.4928433661       -0.6210418349
 H        -3.6694105317        2.2074192550       -1.9773517117
 H        -3.9147627006        2.0088369565       -0.2065729474
 H        -3.8947419565        8.0139344228       -0.8452548408
 H        -3.4775584485        8.0241280863       -2.5221887847
 H        -2.3822099948        7.2116723291       -1.7141301067
 H        -2.3242706583        5.4671507205        0.4154922781
 H        -3.4078896132        4.0938753274        0.9272277929
 H        -3.9591302719        5.8442535498        0.9042160515
 H        -1.8227836218        5.0191996363       -2.2830743562
 H        -2.9607373262        3.7881996923       -2.8483081253
 H        -2.1360400664        3.4575293867       -1.2835126604
 H        -8.9209312624       -0.3123583045       -3.0955663758
 H        -8.1752005003        0.2968273285       -1.7170008822
 H        -7.4051341174       -0.9809355438       -2.5269478188
 H        -6.6558065751       -0.5092135064       -5.0440881379
 H        -6.1823410802        1.2442711146       -5.4991388586
 H        -7.8637969799        0.6218509929       -5.6163941079
 H       -12.3584478076        5.0068250305       -4.1308767192
 H       -12.1183154081        5.2081100595       -5.8842803538
 H       -12.9263226346        6.3926332640       -4.9876862855
 H        -9.3060817840        7.6696409102       -5.6632704429
 H       -10.9545682620        8.0907252640       -5.9934232913
 H       -10.3522719300        6.5745179982       -6.7395476241
 H       -11.3777555271        8.8793000648        1.2554067325
 H       -11.8516630103        7.3413974887        1.8573434550
 H       -12.3359643049        7.8172207908        0.2556609058
 H        -9.2050232908        7.5778522751        2.4388656234
 H        -8.2688044384        6.6790643908        1.3423684093
 H        -9.5621329727        5.9402936826        2.2031457055
 H       -11.0721704444        0.7478298750        0.9544931546
 H       -11.9027497578       -0.0461355187       -0.4385885016
 H       -11.9545295829       -0.5187462503        1.3314078208
 H       -14.2342157213        0.3131765763       -0.6024942176
 H       -15.2890109551        1.2923731305        0.4196986713
 H       -14.5977921613       -0.2794241740        1.1549084318
 H       -16.2930848578        0.5382547386        7.4868289350
 H       -15.4943734737        0.4915334448        8.9974923877
 H       -15.7901230341       -0.9334198965        7.9757591241
 H       -13.7594015530        2.0465095043        8.5084343134
 H       -14.6298337134        2.4948592332        7.0112653381
 H       -12.9096457999        2.1207777500        6.9106953287
 Na       -7.6390938414        5.3135771411       -1.6753912177
