117

 C       -12.2584159904       -0.2325610674        9.2548621379
 C       -12.7393936198       -0.2209112178        7.7055314592
 O       -12.2287566923       -0.9100667121        6.8152971901
 C       -13.9294592746        0.6900971754        7.3494189727
 C       -14.4803862810        0.4945395008        5.8918763285
 O       -15.6273439453        0.1545942837        5.7251138162
 C       -13.6020659471        0.7484707459        4.7058309352
 C       -14.3021252190        1.0393548790        3.3592692596
 C       -13.1811019150        1.5175339025        2.3585144048
 O       -12.2020731347        2.0536633386        2.7956549884
 C       -13.3195621793        1.2588370685        0.8000628067
 C       -13.2811763578        2.8034629610        0.3376755870
 O       -14.3579160346        3.3651589154        0.2657812303
 C       -11.9962676153        3.4095390873       -0.1544063475
 C       -12.0038514181        4.9143947768       -0.1302462398
 C       -10.6732574531        5.5630536337       -0.3691041439
 O        -9.7631250167        4.8593420571       -0.7799480799
 C       -10.3496282971        6.9924742507        0.2175381198
 C        -9.3925421132        7.5662340636       -0.7762505675
 O        -8.2743823696        7.1078733847       -0.9643538207
 C        -9.6743303016        8.8713917152       -1.6950464272
 C        -9.5583716415        8.4336434133       -3.1965872010
 C       -10.5470224356        7.2819041422       -3.3762050937
 O       -11.3868158507        6.9685972734       -2.5333971161
 C       -10.5935164875        6.4514908532       -4.6872371620
 C        -9.4027476981        5.4412442489       -4.5784414513
 O        -8.3473705223        5.8341402910       -4.0736421918
 C        -9.4787351644        4.0540430032       -5.1982360910
 C        -8.1076677522        3.3165426774       -4.9931269886
 C        -7.9609948562        2.5802694880       -3.6707245217
 O        -8.3356331594        3.0834925811       -2.6565786814
 C        -7.1980112534        1.1463712279       -3.5636812972
 C        -5.8489706976        1.4757073449       -2.6841464670
 O        -4.8183725184        1.7782107208       -3.2639118796
 C        -6.0186771900        1.4665228588       -1.1249091373
 C        -4.8209380733        2.1067742417       -0.3625720757
 C        -5.0309236036        3.6308745591       -0.3527519117
 O        -6.0646079988        4.0793412337        0.1312451264
 C        -3.8947740269        4.6871598464       -0.7221431344
 C        -4.4935138892        5.3566062820       -2.0557230397
 O        -5.5086511538        4.9757868489       -2.6495840419
 C        -3.7391636589        6.6010192621       -2.6647735901
 C        -3.6841856577        5.7696368299        0.3663733431
 C        -2.5455447916        4.1027867112       -1.2830409476
 C        -8.3358229831        0.2953285081       -2.8785162195
 C        -6.7205674191        0.6163236951       -4.9381816795
 C       -11.9819548229        5.7133705918       -4.9025144216
 C       -10.3111398411        7.3416410723       -5.8826717804
 C       -11.5385910534        7.8682740570        0.4800864948
 C        -9.6448659418        6.6795204627        1.5829577602
 C       -12.0514571500        0.3843180194        0.4607802345
 C       -14.5443212425        0.5127099871        0.3248061628
 C       -15.1139234643        0.2645874415        8.2480460707
 C       -13.6291291341        2.1606946179        7.5296583932
 H       -13.0842641034       -0.1782118572        9.9049382866
 H       -11.5480982849        0.5762218436        9.4078365106
 H       -11.8147833095       -1.1423465091        9.5351716950
 H       -12.8776333977       -0.0076004311        4.5157586701
 H       -12.8684670937        1.5832605454        4.8459677698
 H       -15.0241092646        1.8632999354        3.5063225262
 H       -14.8119078959        0.2338247402        2.9685577446
 H       -11.9055492513        3.1206700088       -1.2065696388
 H       -11.1840245065        2.9438271328        0.3145398202
 H       -12.4900685174        5.2106632936        0.7987635235
 H       -12.6747606805        5.2482717271       -0.9484523241
 H        -8.8967094450        9.5701363487       -1.4622559015
 H       -10.6737426408        9.3878429038       -1.5877399356
 H        -8.5198123270        8.2014195726       -3.6082259683
 H        -9.8989769485        9.3292927321       -3.7880742616
 H        -9.5185455660        4.1515698090       -6.2520479842
 H       -10.3723422873        3.5475524167       -4.7876524099
 H        -7.2934172775        4.0422095619       -5.0693090951
 H        -7.9707342661        2.6089931653       -5.7942075744
 H        -6.2650076452        0.5177514978       -0.7806437775
 H        -6.9448100239        2.0106573122       -0.8360370700
 H        -3.8955643716        1.8765474313       -0.9447384724
 H        -4.8130337176        1.7111432401        0.6678820235
 H        -4.2715946453        7.4409401458       -2.1067341466
 H        -4.0635702884        6.7633103596       -3.6753705966
 H        -2.7030570610        6.6688439594       -2.4454691761
 H        -3.3295592597        6.7014735877       -0.0660433715
 H        -2.9622501122        5.3475536312        1.0713206080
 H        -4.5993606688        5.8665915160        0.9218162229
 H        -1.8500719863        4.9439125775       -1.3166750516
 H        -2.6202102883        3.7057686943       -2.2804085346
 H        -2.0014957495        3.4251564513       -0.6340857571
 H        -9.1507180124       -0.0059673619       -3.5577772651
 H        -8.7542388124        0.8546410620       -2.0525825521
 H        -8.0262096753       -0.6124211248       -2.3626054060
 H        -5.9443997611       -0.1718246029       -4.8413493454
 H        -6.1850826424        1.4902356726       -5.3287967852
 H        -7.5507652054        0.3894399587       -5.5396805931
 H       -12.0441495586        4.8477126534       -4.2104360934
 H       -12.1160868695        5.3075570388       -5.9124768136
 H       -12.7919082403        6.3825320660       -4.6450895488
 H        -9.3185683877        7.8331282189       -5.6710450639
 H       -11.1406817272        8.0001081637       -6.0815134851
 H       -10.1651364680        6.8332631274       -6.7898926555
 H       -11.3445402210        8.8698332328        0.7820762310
 H       -12.1518716775        7.3893010853        1.2240659889
 H       -12.2111424100        7.9488122459       -0.4101315381
 H        -9.4132743417        7.4650258063        2.3213844795
 H        -8.6316040890        6.2227706165        1.4144027047
 H       -10.2159452390        5.9159354697        2.1302624373
 H       -11.1137396741        0.8629160863        0.6170894933
 H       -12.0771142234        0.1942742172       -0.6369102385
 H       -12.1520646116       -0.6158922854        0.8745094942
 H       -14.4024136771        0.3902687560       -0.7007413436
 H       -15.4030906591        1.1430854678        0.4812645185
 H       -14.5990399954       -0.5081972660        0.7071076207
 H       -16.0042024522        0.8243692767        8.0197103487
 H       -14.8993048973        0.3538937698        9.3280435403
 H       -15.2862550911       -0.8132528761        8.1640133692
 H       -13.4637004444        2.4618283954        8.5683620303
 H       -14.5114006960        2.7295884377        7.1893286896
 H       -12.7605499944        2.4693248472        6.9944965744
 Na       -7.6538706879        5.0059824587       -1.6501563333
