117

 C       -11.1085882408        6.0462006231        0.7108400065
 C       -11.1302846356        4.8275322753        1.6641888200
 O       -10.9707563362        3.7296734864        1.2127794079
 C       -11.1777558207        5.2505060934        3.1555130539
 C       -11.4887380963        3.9714982139        4.0751494408
 O       -10.6433241721        3.0617125267        4.0281093387
 C       -12.8013035007        3.8900932751        4.9705294752
 C       -13.9858068422        3.1867554121        4.2428607560
 C       -13.9077700135        3.1701281300        2.5808690148
 O       -13.3574601113        3.9595580123        1.8952881771
 C       -14.7219116950        2.0275962108        2.0154911219
 C       -13.7242060372        0.8007941057        1.8536690848
 O       -12.6857566197        0.7268304325        2.5267734986
 C       -13.9334153010       -0.2275348833        0.5722469413
 C       -12.9888750449       -1.5782516359        0.6934279627
 C       -11.7014071879       -1.3301967470       -0.1900780212
 O       -11.1516572972       -0.2923054628       -0.1318852137
 C       -11.0230264261       -2.4120394585       -0.8858849313
 C        -9.8080039102       -2.8077048007       -0.0304527498
 O        -9.7059567957       -3.9607815808        0.2811217602
 C        -8.8349327883       -1.7094943604        0.3296632307
 C        -8.2411932712       -1.8116969721        1.7414074828
 C        -8.0941310851       -0.3144693347        2.3215630448
 O        -8.8240580734       -0.1648038043        3.2690322411
 C        -7.1551174929        0.9510708931        1.7034095066
 C        -7.8543937469        1.6738742756        0.4930916401
 O        -8.9965296243        1.3883080190        0.1689672167
 C        -7.0107854091        2.6855375303       -0.1974745370
 C        -7.4330375260        4.2073037816       -0.1507437500
 C        -6.6548473522        5.2579390741       -0.8854929483
 O        -5.7885100887        5.8479273073       -0.3079104989
 C        -6.9929086718        5.5556635928       -2.4070149106
 C        -8.2692631402        6.4562312520       -2.3872271184
 O        -8.9389931684        6.3779875612       -1.3841971154
 C        -8.7227971374        7.1901369189       -3.6665790372
 C        -8.1561510694        8.7825461656       -3.7077335941
 C        -8.5819805291        9.5830899808       -4.9301736143
 O        -9.7375232455        9.4625468159       -5.3394533170
 C        -7.7149795180       10.4959882178       -5.7080608151
 C        -7.1697951152        9.7107310625       -7.0397069425
 O        -7.5732428584        8.6206835991       -7.3505642634
 C        -6.2287539429       10.4953766940       -7.9905911460
 C        -8.6404281243       11.6909252426       -6.2488032603
 C        -6.5685276619       11.0515745958       -4.7625432506
 C        -5.7589668381        6.3634693891       -3.0393746869
 C        -7.2654590730        4.2154452279       -3.1645928345
 C        -7.1376128264        2.1087650820        2.8417573474
 C        -5.8481994548        0.2558893982        1.6456002611
 C       -11.8978549122       -3.6086972685       -1.2459847550
 C       -10.6517739068       -1.7127623969       -2.3137018063
 C       -16.0430557810        1.6901457165        2.6524803380
 C       -14.9931490819        2.4470609635        0.4912748365
 C        -9.8488104892        5.8532540200        3.3863346862
 C       -12.2790802099        6.4622836982        3.2230173543
 H       -10.5844953267        6.9270928157        1.1247026006
 H       -12.1006564409        6.2177849105        0.4398018039
 H       -10.5737713584        5.8186802435       -0.1787374984
 H       -13.0407730941        4.9042535554        5.3260644781
 H       -12.5519965457        3.3610160101        5.8903883358
 H       -14.8739627801        3.5006302393        4.6161587226
 H       -13.9534199948        2.1204564068        4.6148827339
 H       -13.6651071152        0.2634469736       -0.3900912591
 H       -14.9746962871       -0.5098190422        0.6438275984
 H       -13.6987211917       -2.3772309188        0.3087394368
 H       -12.6397168952       -1.7384537933        1.7649583221
 H        -9.0901693824       -0.7199039499        0.0838924422
 H        -7.9648434666       -1.9505660711       -0.3083998210
 H        -7.1930734003       -2.1605359582        1.9055042453
 H        -8.9125462795       -2.1802109773        2.5163374757
 H        -6.9003313906        2.4030457524       -1.2599176976
 H        -5.9514351001        2.6833416957        0.0272281300
 H        -7.0618809315        4.4309890288        0.9235915928
 H        -8.5406878395        4.1089173740       -0.2467018782
 H        -9.8637839721        7.1368487394       -3.6217869383
 H        -8.3712109111        6.7241087826       -4.6334348772
 H        -7.0564190082        8.8175537023       -3.5970790351
 H        -8.5276139813        9.4515048863       -2.9406199173
 H        -6.6898267704       10.4841652603       -8.9617906093
 H        -5.3944276333        9.8389838197       -8.0542444911
 H        -6.1682644990       11.5946989607       -7.7915140067
 H        -7.9582941239       12.4833519605       -6.5525102082
 H        -9.3651609072       12.0505357048       -5.5085258378
 H        -9.1789233349       11.2144285198       -7.0552175649
 H        -5.7689568299       10.9749673864       -5.3915160139
 H        -6.7320766187       10.5776695446       -3.8287556469
 H        -6.7819904189       12.1112646023       -4.7854180072
 H        -6.1455848996        7.0649961082       -3.7915399302
 H        -4.8503524928        5.7243567542       -3.2703891882
 H        -5.3339499542        7.1272748704       -2.4013674913
 H        -6.5663348819        3.4405127761       -2.9099234793
 H        -7.3809966435        4.4477041865       -4.2077333257
 H        -8.2340258869        3.9009129379       -2.8636119570
 H        -6.3201649313        2.8079307888        2.8711176717
 H        -7.1808910268        1.6997576868        3.7742674928
 H        -8.0415422261        2.6735763647        2.8287681056
 H        -5.0171109282        0.8927904777        2.0211781936
 H        -5.6368959401       -0.0381382149        0.6561890833
 H        -5.7318087757       -0.5994951200        2.2907076322
 H       -12.8041964832       -3.1494588390       -1.6982774852
 H       -12.2029075571       -4.1079331415       -0.2504605707
 H       -11.3681655213       -4.2647592080       -1.9900242160
 H       -11.4449674527       -1.0673618699       -2.6846563336
 H       -10.2251139251       -2.3841125656       -3.0685507770
 H        -9.9581564449       -0.9175689692       -2.2344636861
 H       -16.9000604538        2.2675128268        2.2515571190
 H       -16.1736812615        1.8940920194        3.7266748114
 H       -16.2368688684        0.5488334350        2.5849473351
 H       -15.3462697302        3.4396798519        0.5450856131
 H       -15.7695700399        1.7688840488        0.0740492215
 H       -14.0403962116        2.6136698685       -0.0382514537
 H        -9.7700408902        6.6885725683        2.7098592161
 H        -9.0735799969        5.0669405849        3.2112611093
 H        -9.7397010204        6.2284435169        4.4029397181
 H       -11.9753511211        7.2921809707        3.8404301034
 H       -13.2284162552        6.2115823153        3.7925153609
 H       -12.6983539646        6.9139313985        2.2935259521
 Na      -10.6983911851        1.2802573644        1.8468818654
