117

 C       -11.9557224161        0.1443533706        9.1571879828
 C       -12.7718615000        0.0832996986        7.8625826108
 O       -12.5040728680       -0.8125974811        7.0459286215
 C       -13.9221153804        0.9917806655        7.5483840764
 C       -14.1951917747        0.6646019529        5.9797322498
 O       -15.1869746949        0.1015371778        5.6176131774
 C       -13.1548321531        1.1396491479        4.9356506804
 C       -13.3886832404        0.4145922556        3.5587271617
 C       -13.0087528238        1.4113720108        2.4764982882
 O       -12.1668730936        2.2512480442        2.6374497648
 C       -13.6760006040        1.4908015649        1.0410726918
 C       -13.6193242401        2.8969853078        0.4023825439
 O       -14.6200657144        3.4835903972        0.1250774530
 C       -12.2030254658        3.5168289979       -0.0156770456
 C       -12.1162240021        5.0460824892        0.0311468870
 C       -10.7408067979        5.5728593093       -0.3593132610
 O       -10.0547531406        4.7562366764       -0.9451951486
 C       -10.2464219330        7.0184040620        0.2447961262
 C        -9.2641039181        7.6585578280       -0.7309487941
 O        -8.1202840658        7.1851126756       -0.8393317369
 C        -9.6457594192        8.7877755188       -1.6354672208
 C        -9.5452189227        8.2765602857       -3.1165160382
 C       -10.4819781149        7.1240973157       -3.4924198644
 O       -11.4409436980        6.7425631672       -2.8283076559
 C       -10.2496707276        6.3331305948       -4.8616450537
 C        -9.0952748207        5.3227476371       -4.6048361126
 O        -8.1379825209        5.6785071293       -3.9105119402
 C        -9.0264011275        4.0194809249       -5.3872916973
 C        -7.7797554629        3.2461044922       -5.1630537567
 C        -7.9268693142        2.3839217228       -3.8924190532
 O        -8.6700180965        2.8689565834       -3.0242856106
 C        -6.9597665696        1.0288262116       -3.6329234893
 C        -5.9143899472        1.5958513296       -2.5572691427
 O        -4.8402319720        2.1312346541       -2.8420090687
 C        -6.3781248052        1.4985003467       -1.0850248361
 C        -5.4110347987        2.3002205345       -0.1473825361
 C        -5.5172428380        3.8183859306       -0.2457796007
 O        -6.5159963269        4.4281114525        0.1230185767
 C        -4.2654845321        4.6501061222       -0.8110178541
 C        -4.4890399844        4.8838926068       -2.3213246534
 O        -5.5852155807        4.8605694782       -2.8310149740
 C        -3.3575175039        5.0869813148       -3.2646140716
 C        -4.4050809327        6.0435267678       -0.1192374185
 C        -2.8653317385        4.0045035012       -0.5266047091
 C        -7.8934252673       -0.0495858493       -3.1501028341
 C        -6.2977498365        0.6257506372       -4.9140732313
 C       -11.5247190944        5.6875972053       -5.4191801587
 C        -9.6603511768        7.2835494645       -5.9983801405
 C       -11.4464009412        7.8833975164        0.6375650840
 C        -9.4397238300        6.5906061057        1.4567175959
 C       -12.9428240756        0.4867737446        0.1400405029
 C       -15.1771808662        1.0669426046        1.1501934049
 C       -15.1249635619        0.3958810846        8.3808894727
 C       -13.8021947647        2.5188998659        7.9171488635
 H       -12.5513732609        0.2924501872        9.9995591730
 H       -11.2406404497        0.9925148470        9.0919741106
 H       -11.2887924183       -0.7511369251        9.1582049888
 H       -12.1005871437        0.9997356277        5.1435866644
 H       -13.3106539670        2.1684456461        4.8084362070
 H       -14.4495701353        0.1695588558        3.6499011231
 H       -12.7289797981       -0.5211847548        3.4790710148
 H       -12.0478619485        3.2132246823       -1.0135718268
 H       -11.4232518192        3.1040425812        0.6129598900
 H       -12.3938730266        5.3040002654        1.0922793270
 H       -12.9354602665        5.4359328128       -0.5833902761
 H        -8.8288417756        9.5777070975       -1.5200009705
 H       -10.6410627241        9.1389124601       -1.4454729410
 H        -8.5028788231        8.0637316375       -3.3786730764
 H        -9.6908006077        9.1458472508       -3.7965722126
 H        -9.1305954820        4.3120839201       -6.4700333718
 H        -9.8718981934        3.3856052436       -5.1949040473
 H        -6.9594407084        3.9653500540       -4.9300407031
 H        -7.5621439009        2.6062225308       -6.0419977599
 H        -6.3904992915        0.3762459290       -0.7472544677
 H        -7.3892337503        1.8294258689       -0.9940347533
 H        -4.4197128290        1.9748875266       -0.3270042600
 H        -5.6296932633        2.0010944854        0.8843620550
 H        -2.6966445055        5.8448797857       -2.8028334565
 H        -3.7055215166        5.1755228203       -4.2575139524
 H        -2.6625513307        4.2527049246       -3.0342342254
 H        -3.9906566803        6.7779686471       -0.7650219552
 H        -3.7713735531        6.0012612723        0.7248429289
 H        -5.4323262416        6.2355852766        0.0008291943
 H        -2.0741354229        4.7275047331       -0.6365824710
 H        -2.5766127962        3.1927179687       -1.1594080965
 H        -2.7959648787        3.5575537664        0.4392892672
 H        -8.5058468365       -0.4198246028       -3.9393462897
 H        -8.6735471571        0.2696873864       -2.4280644138
 H        -7.3635239959       -0.9294891441       -2.7677481843
 H        -5.5444395700       -0.0183635403       -4.5798276228
 H        -5.8764881423        1.5012032055       -5.3521182037
 H        -6.9992738371        0.1092201824       -5.5833994009
 H       -11.6266472237        4.7167498647       -4.9436538672
 H       -11.4252458731        5.5303964015       -6.5161633292
 H       -12.4748177142        6.2160820961       -5.1971123700
 H        -8.8966405410        7.9349893921       -5.6675410618
 H       -10.3928820117        8.0005140250       -6.4153285442
 H        -9.3051769282        6.6355912521       -6.8039251924
 H       -11.1601089516        8.8693126922        1.0566803522
 H       -12.1503495683        7.4693332845        1.4144357500
 H       -12.0511846574        8.0233752579       -0.2177129515
 H        -9.3989943017        7.3735699892        2.2494339927
 H        -8.5173977104        6.0671285243        1.3623352770
 H       -10.0733147587        5.8574331352        2.0392502941
 H       -11.8530391818        0.7718648760       -0.0563073420
 H       -13.4399040085        0.4241006762       -0.7709031126
 H       -12.9169420768       -0.5019128418        0.6249841384
 H       -15.6717060972        1.1193699776        0.2000820672
 H       -15.6467157957        1.7342220724        1.8439883082
 H       -15.2267316705        0.1469119195        1.6150593830
 H       -15.9674940300        1.1403173028        8.3688295041
 H       -14.8582198376        0.2995031547        9.4186780349
 H       -15.4698443119       -0.5251140689        7.8996473213
 H       -13.6470599437        2.6047306855        9.0019397769
 H       -14.7520250080        2.9847683849        7.7244249120
 H       -13.0498655099        3.1130798616        7.3859371053
 Na       -7.7292834072        5.0061128147       -1.7863341598
