117

 C       -11.9715306098        0.4477194717        9.4657403012
 C       -12.6285719240        0.0941653444        8.1150380773
 O       -12.2193318425       -0.7996495872        7.4592182059
 C       -13.8467894976        0.9975457026        7.5944296790
 C       -14.0917037047        0.8302755240        6.0313733878
 O       -15.0826538986        0.2787203217        5.6129664553
 C       -13.1004596334        1.3911823432        5.0782040830
 C       -13.1318651880        0.6684871561        3.6394345233
 C       -12.9826577033        1.7678803114        2.5088458887
 O       -11.9720411631        2.4755311245        2.5672555348
 C       -13.9531908858        1.8247236560        1.2074874222
 C       -13.8342839887        3.1546764643        0.3308180142
 O       -14.8252598659        3.8783395983        0.1552126765
 C       -12.4972316832        3.5109013425       -0.2231484100
 C       -12.0884542958        4.8746158165        0.2220412832
 C       -10.7533017473        5.3417100241       -0.2808730841
 O       -10.0951665639        4.7508326453       -1.0828257269
 C       -10.2152425045        6.7389951700        0.2558145738
 C        -9.3580240465        7.4580884415       -0.8526744269
 O        -8.1904843882        7.0979053868       -1.0617280530
 C        -9.9764762466        8.5780505494       -1.7739425329
 C        -9.7015448385        8.3581464836       -3.3090893265
 C       -10.5311174970        7.1111885888       -3.8220901913
 O       -11.4050685316        6.6002515781       -3.1816495826
 C       -10.0827973217        6.4656599789       -5.2712763408
 C        -8.9524787817        5.4704316088       -4.9159350152
 O        -7.9539848854        5.8121892840       -4.3022249628
 C        -9.0631172044        3.9777503965       -5.3449085460
 C        -7.7742332416        3.1004349581       -5.2060784537
 C        -7.6800734031        2.4246073628       -3.8570778880
 O        -8.4358604775        2.7865801574       -3.0058104376
 C        -6.7688984790        1.1812151552       -3.5435283019
 C        -5.9091642527        1.3360502721       -2.2099525756
 O        -4.7336509634        1.5544385842       -2.3631525078
 C        -6.4835345200        1.3248648429       -0.8110468128
 C        -5.5959105427        2.1843509356        0.0875534130
 C        -5.6757537540        3.6933875186       -0.2706924797
 O        -6.7432419446        4.2533161481        0.0302084014
 C        -4.4862882046        4.5813928014       -0.7273887089
 C        -4.4854237669        4.4932650440       -2.3149890909
 O        -5.4922088406        4.5406868536       -2.9822239289
 C        -3.0885351261        4.2686148395       -3.2058334379
 C        -4.9049446988        6.1342565665       -0.3604956666
 C        -3.1183606148        4.2478140156       -0.0482595624
 C        -7.7475733606       -0.0034178024       -3.3269548114
 C        -5.7515060986        0.9143040920       -4.7712185086
 C       -11.3411642622        5.8467636129       -5.8672266627
 C        -9.5099961446        7.5395304088       -6.2364425334
 C       -11.4106041157        7.5980809517        0.7755372765
 C        -9.2422101824        6.4343778497        1.3700162950
 C       -13.5436073192        0.5659735099        0.3447115633
 C       -15.4160773895        1.7571362192        1.6208639092
 C       -15.0280748242        0.3241153088        8.3625891593
 C       -13.6386234279        2.5028005932        7.8990626438
 H       -12.6405566701        1.0311042601       10.1413024505
 H       -11.1872833066        1.1786806391        9.2369160895
 H       -11.5218427213       -0.4034311956        9.8610454371
 H       -12.1546746559        1.3488726911        5.4783885538
 H       -13.3352016103        2.3981868724        4.7911890889
 H       -14.0833190135        0.0195316110        3.6776095529
 H       -12.2959661764       -0.0402753159        3.6962257998
 H       -12.4624123597        3.4284293716       -1.3117087936
 H       -11.7745128359        2.8602612386        0.1733163526
 H       -12.1046799181        4.9504144528        1.3297289622
 H       -12.8417741727        5.5889328559       -0.1415163117
 H        -9.5706652515        9.5006712790       -1.3415703487
 H       -11.1140435047        8.6267843366       -1.7071050876
 H        -8.6297792025        8.3362077871       -3.5483778164
 H       -10.0055335869        9.2288665570       -3.9191722038
 H        -9.4086057378        3.8727302269       -6.3536206184
 H        -9.9214633339        3.4852514715       -4.8114271134
 H        -6.8923398835        3.7903204530       -5.1997880320
 H        -7.7847338260        2.4098109953       -6.0551359794
 H        -6.4097402112        0.2397458456       -0.5358666894
 H        -7.5454219611        1.6754975156       -0.8081720356
 H        -4.6123068599        1.7551803875        0.0558478641
 H        -5.8951974788        2.1549906372        1.1099101383
 H        -2.5208846666        3.5838207931       -2.5988308565
 H        -2.5171633620        5.2319773761       -3.4200563338
 H        -3.2499808375        3.8239074281       -4.1571152634
 H        -3.9894951867        6.6666393407       -0.4439971876
 H        -5.4176027301        6.1795065824        0.5778197262
 H        -5.5497762517        6.4468934161       -1.1565843133
 H        -2.2852565109        4.9431465530       -0.1750936134
 H        -2.7376302703        3.2643148430       -0.2326574450
 H        -3.2658395619        4.1739007179        1.0329177738
 H        -8.3755946077       -0.2998917510       -4.2153226835
 H        -8.3948865087        0.2792801514       -2.4936533492
 H        -7.2470847419       -0.9397254764       -3.0301370355
 H        -4.9817665259        0.1647715117       -4.4846040558
 H        -5.2726925926        1.8718629582       -4.9468696555
 H        -6.2715743071        0.5156894840       -5.5798747660
 H       -11.8860612822        5.2895994587       -5.0919457444
 H       -11.1721621936        5.2084516285       -6.7269875399
 H       -11.9465391325        6.6417938641       -6.2470195877
 H        -8.5642429931        8.0675025082       -5.8863250735
 H       -10.2394192799        8.3253319730       -6.4456987621
 H        -9.2074749358        7.0693248007       -7.1444256761
 H       -11.0253641462        8.4890197093        1.2178733236
 H       -11.8791377962        7.0381193942        1.5499115383
 H       -12.1557776150        7.9655317257        0.0167986666
 H        -8.8281059198        7.3893461084        1.7006351834
 H        -8.2905024140        5.9953018912        0.9175330507
 H        -9.4887326301        5.7844150564        2.2168498125
 H       -12.5053108075        0.6130155430        0.1066061275
 H       -14.1927701968        0.4555164346       -0.5699381825
 H       -13.6455058624       -0.3591855878        0.9528756045
 H       -16.0582606138        1.5926623630        0.8102404258
 H       -15.6841004327        2.6512357794        2.1431514653
 H       -15.5950758720        0.9015439082        2.2933728427
 H       -15.9263638067        0.4731015205        7.8092464924
 H       -15.0368689911        0.6817720159        9.4047042696
 H       -14.8606527532       -0.7545401495        8.2975317113
 H       -13.9937564448        2.7628148625        8.9046981471
 H       -14.0518133134        3.1220163387        7.0809303682
 H       -12.5883059609        2.7159754831        7.8961487814
 Na       -7.9226297333        4.9152417809       -2.0353641435
