117

 C       -11.9993749662        0.4152098541        9.1498356045
 C       -12.6743050100        0.0331613479        7.8846833149
 O       -12.2816528230       -0.8829936035        7.2458365907
 C       -13.9540901080        0.9166184473        7.5273841461
 C       -14.2327413313        0.7028990565        5.9633225403
 O       -15.2281377200        0.1033772720        5.5813245510
 C       -13.1149960135        1.2734865290        5.1202413019
 C       -13.3489073634        0.7810735764        3.6328795785
 C       -12.8963975251        1.6425843793        2.4798656244
 O       -11.8896386034        2.3598157172        2.5235511365
 C       -13.7878042337        1.6101713812        1.1372340308
 C       -13.6931324160        2.9709650339        0.3402018456
 O       -14.7163054151        3.6067000315        0.1679848054
 C       -12.2805177546        3.3724508359       -0.0728204929
 C       -12.1937190655        4.9824953103        0.1432213929
 C       -10.8331250472        5.5462457753       -0.2508223509
 O       -10.0791923768        4.8437993843       -0.9271443022
 C       -10.2912776521        6.9180522516        0.3027797379
 C        -9.3793848801        7.4243517397       -0.8612315509
 O        -8.2364397347        7.0864040534       -1.0240700842
 C        -9.8679057813        8.5721366176       -1.7572467024
 C        -9.4724514845        8.2351302314       -3.2102292744
 C       -10.4018801884        7.1186535262       -3.6727157657
 O       -11.3174556716        6.8385921987       -2.9249800188
 C       -10.1632677969        6.4396186408       -4.9881700957
 C        -9.0398114813        5.3613601846       -4.6754238767
 O        -8.1331690493        5.6355804133       -3.9511874341
 C        -8.9838961330        4.0223781668       -5.4938832757
 C        -7.6802684253        3.1826877687       -5.1919000489
 C        -7.8020067895        2.3886964784       -3.8498292410
 O        -8.4407318648        2.7758485838       -2.8874809216
 C        -6.8762863901        1.1163479018       -3.6759626119
 C        -5.9669658277        1.5721354911       -2.4554500472
 O        -4.9204194747        2.1297169564       -2.7656589391
 C        -6.4732778290        1.5581311010       -1.0067126564
 C        -5.4878024937        2.2601261274       -0.0228938322
 C        -5.6147771600        3.7748609999       -0.2328088216
 O        -6.6953686273        4.2964835711       -0.0486196587
 C        -4.3959392898        4.6707862764       -0.8255713859
 C        -4.4860720445        4.7233279590       -2.4077256888
 O        -5.5453148786        5.0323009895       -2.9755743530
 C        -3.2734296651        4.3609589771       -3.1797738255
 C        -4.5084487468        6.1763911165       -0.3651205930
 C        -3.1172157698        4.0445650539       -0.2678203447
 C        -7.7467022095       -0.0782720841       -3.1455464559
 C        -5.9433933311        0.7625100082       -4.8570796359
 C       -11.4878832138        5.7626291676       -5.4662039767
 C        -9.5387819580        7.3656722282       -6.0390695213
 C       -11.3328226438        7.9267061020        0.7512227879
 C        -9.4197491142        6.4498087924        1.5411575792
 C       -13.2330203279        0.3595673003        0.3411970735
 C       -15.1915889830        1.3267829236        1.4333222000
 C       -15.2119202421        0.4297785033        8.2902554921
 C       -13.6182367930        2.3996782085        7.8156870204
 H       -12.8558408274        0.6015810318        9.8936843491
 H       -11.4785942181        1.3575357811        9.1126419160
 H       -11.2520679649       -0.3254191966        9.3950643099
 H       -12.1292993597        0.9068975912        5.4887779440
 H       -13.1632848446        2.4100811233        5.0715078089
 H       -14.4495314974        0.6968136928        3.6446102944
 H       -12.9142091391       -0.1843809207        3.5112650844
 H       -12.1708857137        3.0547762490       -1.1794323624
 H       -11.5661337777        2.7962728597        0.5584121633
 H       -12.5332993325        5.2356391473        1.1147021684
 H       -12.9919921747        5.3196393815       -0.5266935632
 H        -9.3263173831        9.4280224849       -1.4729272952
 H       -10.9694650949        8.7094619351       -1.7142905566
 H        -8.4248023509        8.0130110878       -3.2883956056
 H        -9.4790343781        9.1287197859       -3.7797037928
 H        -9.0462842697        4.2629087016       -6.5610936251
 H        -9.9486828226        3.4620797212       -5.3052997893
 H        -6.8864271195        3.9140666543       -5.0663443901
 H        -7.4838766796        2.4926341603       -6.0093267805
 H        -6.5872458975        0.5819710419       -0.6704062378
 H        -7.5104978451        2.0465177843       -0.9764542515
 H        -4.4442298875        1.9006980923       -0.2303883843
 H        -5.7367407605        1.8327184500        0.9375408022
 H        -2.3186886843        4.3881793224       -2.7475261371
 H        -3.5504482771        4.9026060065       -4.1274695753
 H        -3.3910719723        3.3139280078       -3.5033029956
 H        -3.8891172741        6.7898625021       -1.0337437011
 H        -4.0964018950        6.1910578857        0.6451591326
 H        -5.5797892825        6.4499930424       -0.4711354304
 H        -2.2366158748        4.5940099351       -0.5474219966
 H        -2.8192309313        3.0061629641       -0.3722954609
 H        -3.1773562990        4.1153485842        0.8183544499
 H        -8.3852602228       -0.5236669184       -3.9398273398
 H        -8.4404260066        0.1591877520       -2.3865029682
 H        -7.0974210000       -0.8841211596       -2.8515413051
 H        -5.5285793133       -0.2453099743       -4.7073198665
 H        -5.1908083168        1.5431365319       -4.9221958526
 H        -6.5786217382        0.7126250369       -5.7252587012
 H       -12.0316111308        5.3357611916       -4.5983589003
 H       -11.3244211659        5.0252512421       -6.2489034804
 H       -12.1541284242        6.5060247562       -5.9133162849
 H        -8.5399295390        7.6937533618       -5.7191830105
 H       -10.0065976357        8.3102388247       -6.0590681718
 H        -9.4584010838        6.8614295177       -7.0031514263
 H       -10.9977678479        8.9431186505        0.9875127461
 H       -11.7970006630        7.5472551445        1.6438228819
 H       -12.1803149612        7.9852822885        0.0046720227
 H        -8.8138687076        7.2090197574        2.0018155021
 H        -8.7657699589        5.6422169971        1.1652640278
 H        -9.9186147616        5.9713773036        2.3417070153
 H       -12.2291051257        0.3989063097        0.0710545346
 H       -13.9262082604        0.3224464883       -0.5455585333
 H       -13.3062609830       -0.5561171787        0.8896455295
 H       -15.6557646663        1.7563554104        0.5273356073
 H       -15.6374598192        1.7337693820        2.3322115789
 H       -15.4342843266        0.2366509243        1.4044088744
 H       -15.9646891499        1.1874173628        8.2370518668
 H       -14.9351311521        0.2874575347        9.3625986357
 H       -15.6461964171       -0.4309745497        7.7885228709
 H       -13.1975164775        2.4799355571        8.7909602251
 H       -14.4745373709        3.0689352036        7.6869638312
 H       -12.8921374435        2.7946210982        7.1205786143
 Na       -7.8777708945        4.9651828525       -1.8447427091
