117

 C       -11.9780189208        0.4539858484        9.5227949244
 C       -12.4764708204        0.3269578443        8.1347756926
 O       -11.8714775269       -0.3472600818        7.3515155715
 C       -13.7760406389        1.0420994897        7.6064675540
 C       -13.9186754737        0.8035574062        6.0218363665
 O       -14.9465483622        0.2764036689        5.6167344308
 C       -12.8851104681        1.3052133954        5.0665812672
 C       -13.1937004720        0.8493268171        3.6122684254
 C       -13.1739838430        2.0608500050        2.6468094552
 O       -12.3825263253        3.0090447515        2.7395849223
 C       -14.1645713878        1.9815707380        1.4510497485
 C       -13.9358810271        3.2213491771        0.5206196769
 O       -14.7305509996        4.0709784679        0.3790031650
 C       -12.4737366950        3.3953092726       -0.2054261263
 C       -11.9505355026        4.7534599862        0.2552305244
 C       -10.6270352561        5.3253316533       -0.4351134388
 O       -10.0404412170        4.6390707037       -1.2845624987
 C       -10.0986395883        6.6108652949        0.1507368057
 C        -9.4009958270        7.3787928506       -1.1338359643
 O        -8.2356703344        7.1431444037       -1.4805102298
 C       -10.2363553334        8.3687704658       -1.9932399858
 C       -10.0092985156        8.3268103573       -3.6125999732
 C       -10.5820642461        6.9930181625       -4.1715370303
 O       -11.4517735791        6.3239319089       -3.5987460727
 C       -10.0119966789        6.4970894996       -5.4698404726
 C        -8.8718098034        5.5117896408       -5.0152530882
 O        -7.8252481746        5.9516467677       -4.5214412000
 C        -9.0832180373        4.0135652612       -5.0737177325
 C        -7.7634651197        3.2900839986       -4.9043686121
 C        -7.6667842869        2.3608812877       -3.6698644642
 O        -8.2305609346        2.7354943797       -2.6513365589
 C        -6.6882510340        1.0561493927       -3.6001891714
 C        -5.7377940037        1.1607903189       -2.2648509503
 O        -4.4949374850        1.0539432299       -2.3828680099
 C        -6.4791539320        1.2240775964       -0.9380470385
 C        -5.7470476770        2.0904191783        0.1288707269
 C        -5.8828635650        3.6177661350       -0.2014895114
 O        -6.9927711384        4.1493955962       -0.0594774509
 C        -4.6491483304        4.5523389549       -0.5160322974
 C        -4.5692741621        4.3092951177       -2.1068795326
 O        -5.5855913315        3.8999062285       -2.6512874886
 C        -3.3048897533        4.4758760771       -2.9032348420
 C        -4.9119080655        6.0170952466       -0.3956258751
 C        -3.4643620314        4.1442198623        0.3381483836
 C        -7.6085202451       -0.1777197538       -3.3987270172
 C        -5.8098978587        1.0694984561       -4.8174509645
 C       -11.1387080460        5.8132003867       -6.3164872122
 C        -9.3480489832        7.6859512724       -6.3118312601
 C       -11.1852494877        7.4934486674        0.8247847506
 C        -8.8476246868        6.3422187462        1.1695658205
 C       -13.9777245449        0.6535434908        0.6633350303
 C       -15.5743389866        2.0461670350        1.9633909644
 C       -15.0833139004        0.5208420234        8.2939921050
 C       -13.6116981650        2.5744402741        7.8560305681
 H       -12.7749561924        0.5745037864       10.2824784940
 H       -11.3539003975        1.2966056526        9.5945239429
 H       -11.4719928433       -0.4418531392        9.7953704745
 H       -11.9634204630        1.0208114591        5.4502560856
 H       -12.8900781718        2.3920820076        5.0582664041
 H       -14.2293236542        0.4087598781        3.7181423322
 H       -12.5751587632       -0.0034803377        3.3794957536
 H       -12.5332162670        3.3984107134       -1.2756641409
 H       -11.7391298257        2.7016610120        0.0030417108
 H       -11.8061768726        4.7499960335        1.3620739973
 H       -12.7556912781        5.4801856671        0.0125218464
 H       -10.1103143755        9.3718104964       -1.6171628141
 H       -11.3591692254        8.2385278732       -1.8216314224
 H        -8.9572075102        8.5937889529       -3.9301434560
 H       -10.6618608350        9.1477502828       -4.0359804569
 H        -9.5474974382        3.7879635528       -5.9899758177
 H        -9.8730686909        3.6520749919       -4.3940695879
 H        -7.0429282561        4.1202810890       -4.7840102898
 H        -7.5596050306        2.7105212529       -5.7979660408
 H        -6.4531110817        0.1995029585       -0.5839947252
 H        -7.5264047722        1.6147483002       -1.1408632633
 H        -4.6875288108        1.7927768060        0.2521247341
 H        -6.2541552183        1.9074766646        1.0712329832
 H        -2.9596762051        3.5123938886       -2.9198040891
 H        -2.4900150463        5.1087462567       -2.5116203583
 H        -3.6802657441        4.7903741606       -3.8971637041
 H        -4.5602122095        6.4084156477       -1.3655212194
 H        -4.3819505921        6.4343044927        0.4805762799
 H        -6.0232205616        6.1678558048       -0.2925698402
 H        -2.8839256159        4.9454312145        0.8307028659
 H        -2.7525067698        3.4629969191       -0.1959424057
 H        -3.7601774794        3.6712832165        1.2971809627
 H        -8.2955331056       -0.2251785176       -4.2815367021
 H        -8.1998725372       -0.0514399248       -2.5137636914
 H        -7.1145157982       -1.1467648703       -3.2841665618
 H        -5.1005517230        0.1875273723       -4.9385583267
 H        -5.2148320060        2.0198927686       -4.7537428463
 H        -6.4710620803        1.1432746032       -5.6911401596
 H       -11.7239524500        5.0931076873       -5.7420949371
 H       -10.7557514176        5.3219029997       -7.1831748673
 H       -11.8110901297        6.5827113409       -6.6026933045
 H        -8.2903525361        7.8748048181       -6.0148096295
 H        -9.9534600254        8.5731070517       -6.3325533069
 H        -9.3160872359        7.5016136161       -7.3763608693
 H       -10.8126989069        8.4805178335        0.9927579579
 H       -11.4198031693        7.0426208524        1.7358102302
 H       -12.0923758675        7.5248061365        0.1613588807
 H        -8.2427770284        7.1954655601        1.3673936351
 H        -8.1363739062        5.5934609835        0.7749518883
 H        -9.1948966840        5.9537325918        2.0917864524
 H       -13.0644342661        0.6786947790        0.1637110376
 H       -14.7630726843        0.6481158980       -0.1578179060
 H       -14.1443428821       -0.2271345996        1.2815690580
 H       -16.1870500433        2.6054351082        1.2238074094
 H       -15.7311608834        2.6572931011        2.8587046863
 H       -16.0689673805        1.0311243955        1.9991018762
 H       -15.7461233131        1.3340134064        8.2897690743
 H       -14.7787708766        0.2132336472        9.3141180793
 H       -15.4632212088       -0.3641815443        7.7980954594
 H       -13.1389270070        2.7760450966        8.8351288188
 H       -14.6147780803        3.0571407589        7.9544708216
 H       -12.9536080850        2.9772907038        7.0956695965
 Na       -7.7476371524        5.0465578622       -2.0419193609
