117

 C       -11.3225143408        5.6805885178        0.4544041060
 C       -10.9509988755        4.9714532248        1.7187948524
 O       -10.6902956836        3.7641793071        1.4227623304
 C       -11.1947811254        5.3977141872        3.2026716197
 C       -11.4863555709        4.0813623611        3.9324691379
 O       -10.8411551866        3.0848207823        3.7376790333
 C       -12.7626154596        4.0208729106        4.9420693873
 C       -13.9137028127        3.2343436714        4.1520832854
 C       -13.9631442912        3.2941471801        2.6135128355
 O       -13.5375503833        4.2382784027        1.9162800755
 C       -14.7507450571        2.2111534944        1.7491621423
 C       -13.9816845531        0.7701505173        1.8608092991
 O       -13.0475774655        0.7165335476        2.5870874107
 C       -14.3251316017       -0.4759322213        1.0092525822
 C       -13.1507746585       -1.4667520077        0.9274852084
 C       -11.8829638918       -1.1631752602        0.1185568128
 O       -11.4892605192        0.0201263160       -0.1046498495
 C       -11.0760591530       -2.3053726043       -0.8041229088
 C        -9.8075889643       -2.7509385062       -0.1406674529
 O        -9.5744708320       -3.9204036503        0.0709500657
 C        -8.7794670273       -1.6432950716        0.1814944817
 C        -8.1419157106       -1.6527624262        1.6591225687
 C        -8.3124732619       -0.2487295958        2.4357658145
 O        -9.2925137997       -0.0274767589        3.1335482524
 C        -7.1882202058        0.8307433393        2.0051322219
 C        -7.6179231832        1.5895640410        0.7646631014
 O        -8.7306509757        1.3492965654        0.3372818478
 C        -6.6884549883        2.6019957369       -0.0944407752
 C        -7.0787012915        4.2130809645        0.0398949526
 C        -6.4479183062        5.2869027240       -0.9248263681
 O        -5.4412464601        5.8204044104       -0.4622693274
 C        -6.9209183516        5.4846987972       -2.4071133463
 C        -8.3550199573        6.3413514323       -2.6167303297
 O        -9.2371439619        6.2372960558       -1.7874191515
 C        -8.5826425602        7.0822694857       -3.9641786409
 C        -8.0694505518        8.4310510607       -4.1958189728
 C        -8.6702771013        9.3618677873       -5.2333461664
 O        -9.7552042416        9.0085739928       -5.5353030116
 C        -7.7981771647       10.5228133288       -5.7920459774
 C        -7.0706364658        9.7222766754       -7.0462580690
 O        -7.3760500399        8.5861282187       -7.2918860354
 C        -6.0842740074       10.3782366339       -8.0139241511
 C        -8.5507806359       11.7416990029       -6.0883975974
 C        -6.4319382028       10.9001361425       -5.0212756951
 C        -5.7673843733        6.1791594501       -3.2094947586
 C        -7.1233502390        4.1511537668       -3.0989778276
 C        -7.1095877169        1.7526932035        3.1920913948
 C        -5.7056283132        0.2332616802        1.7837382316
 C       -11.9681256067       -3.6107813890       -1.0807287484
 C       -10.8398608628       -1.8818222867       -2.2125986089
 C       -16.0841546669        2.0152943536        2.6685819115
 C       -15.1974956263        2.5545389122        0.3252203163
 C        -9.7212953043        5.8955459852        3.7676519315
 C       -12.1475516216        6.5558957785        3.4821968949
 H       -11.6778032864        6.6633899924        0.7445826237
 H       -12.1808906019        5.1243429918       -0.0199987796
 H       -10.4414404287        5.8417665810       -0.2372004773
 H       -13.1697171249        4.9941633978        5.3224211617
 H       -12.4722250339        3.3798225157        5.8323964907
 H       -14.9257384577        3.5870492957        4.6865189128
 H       -13.8333769219        2.1705058935        4.3871900192
 H       -14.4289120972       -0.0283868323        0.0550629665
 H       -15.2207636968       -0.9821994218        1.4014812289
 H       -13.5894349357       -2.3519715122        0.5691670220
 H       -12.8291637915       -1.5599249765        1.9332515340
 H        -9.2028756747       -0.5523535216        0.1502055870
 H        -7.8860458273       -1.5885475982       -0.4540731099
 H        -7.0894525736       -1.7484548133        1.6853390241
 H        -8.7348086829       -2.1980975885        2.4210118849
 H        -6.2684430905        2.4157544197       -1.0381534329
 H        -5.7073154543        2.6399431109        0.4249111889
 H        -6.7589173789        4.3887865050        1.0069972642
 H        -8.1500887810        4.0074309840        0.0076614618
 H        -9.6368104078        6.9850044074       -4.0074846185
 H        -8.2194544508        6.4722631041       -4.7915451233
 H        -7.0011780770        8.4608323914       -4.1477849158
 H        -8.3606741302        9.0586422976       -3.3186624242
 H        -6.7004525287       11.0124426598       -8.7270275330
 H        -5.5561790557        9.5855489937       -8.5132466599
 H        -5.5186789404       11.1263601124       -7.4989158000
 H        -8.0138238886       12.2995583180       -6.8578803390
 H        -8.7378516325       12.3343472171       -5.2597775843
 H        -9.5199159615       11.4600863343       -6.5143943940
 H        -5.9981440737        9.9342792587       -4.7787292319
 H        -6.8747450992       11.6372492411       -4.3164816012
 H        -5.8323079392       11.2629222684       -5.7838772329
 H        -5.8180867057        5.9389306400       -4.2670385046
 H        -4.9123745370        5.8348664102       -2.7523803323
 H        -5.7993986027        7.2817895845       -3.3624598714
 H        -6.1521860437        3.7135951528       -3.1678219253
 H        -7.6273928080        4.3584262452       -4.0284467046
 H        -7.8094076010        3.4043087968       -2.4876228859
 H        -6.6951765315        2.6827756346        2.8332372051
 H        -6.2722484904        1.5652447225        3.9784417559
 H        -8.0118911304        1.9788031895        3.7352601885
 H        -4.9804747647        0.9751322430        1.5395366488
 H        -5.6329229751       -0.6009950255        1.0862178098
 H        -5.3044009400       -0.1242396383        2.7154284574
 H       -12.8642788909       -3.3297911581       -1.5829867473
 H       -12.2480626613       -3.9959884808       -0.1745799760
 H       -11.3903630063       -4.2865770632       -1.6608022743
 H       -11.7307471654       -1.8841705261       -2.8135639847
 H       -10.0380190630       -2.3956425293       -2.6839239719
 H       -10.6356725600       -0.8027831534       -2.3606448080
 H       -16.8781459042        1.5482746855        2.1032412859
 H       -16.6234175105        2.9241444554        2.9444757800
 H       -15.9677400530        1.4272967702        3.5252084302
 H       -15.7471743023        3.5302216546        0.1887422777
 H       -15.8615113833        1.7123518281        0.1110924753
 H       -14.3649887481        2.6504089018       -0.3269153196
 H        -8.9906347904        5.5181849047        3.0131459167
 H        -9.6473741115        5.5206296257        4.7594607665
 H        -9.6367349708        6.9643666897        3.7924317562
 H       -11.7890869278        7.4540068877        4.0335422582
 H       -13.0791026700        6.3234651893        3.8731530753
 H       -12.4473248708        6.9184505444        2.5419335372
 Na      -10.6171802022        1.6660784758        2.0213739020
