117

 C       -11.3218870501       -0.0192809787        8.2561671810
 C       -11.6259771678        1.4740705008        8.0701182644
 O       -10.6863350392        2.2532880566        7.9746203255
 C       -13.0782395187        2.0807674677        7.9259380217
 C       -13.7051606496        1.5584198886        6.5605334803
 O       -14.8588175327        1.2996832015        6.4045434689
 C       -12.7518582316        1.6822723878        5.2210957748
 C       -13.6360521626        1.5252442294        3.9931044948
 C       -13.5017697003        2.6548953073        3.0378816032
 O       -12.8128018812        3.6589120285        3.3533800061
 C       -14.3253544124        2.7397152844        1.6467331345
 C       -13.9371539372        3.9849315942        0.8748423314
 O       -14.7402941636        4.8611510230        0.6398916342
 C       -12.5297221031        4.0306051265        0.2038768260
 C       -12.3550879780        5.4290700532       -0.3596911193
 C       -10.8924705760        5.6548189965       -0.9986958187
 O       -10.1909447946        4.7023807678       -1.3872261612
 C       -10.1499926979        7.0686023580       -0.9737758905
 C        -9.4218458107        7.3592637435       -2.3617803350
 O        -8.4081833742        6.7592941485       -2.6439175014
 C       -10.0754838818        8.3512206570       -3.3954206217
 C        -9.6165635734        8.0245107838       -4.8383006287
 C        -9.8643347369        6.6197323551       -5.1548295526
 O       -10.7936846663        5.9746373271       -4.7414645119
 C        -8.8323379256        5.6455433663       -5.9651709328
 C        -8.4784564029        4.4703161503       -4.9456076097
 O        -7.4038904290        4.4117495152       -4.3698339185
 C        -9.5367341726        3.4691647267       -4.6870604393
 C        -8.8989188313        2.0801594958       -4.8199323264
 C        -8.3448279378        1.5437349122       -3.5347366605
 O        -8.5821914186        2.0211542556       -2.4416266728
 C        -7.5351951738        0.0899204940       -3.5533962360
 C        -6.2684026366        0.3484550316       -2.8254396079
 O        -5.1831113408        0.5036118561       -3.3650784351
 C        -6.3502195419        0.4363600630       -1.2419027374
 C        -5.3490830633        1.4560290735       -0.4848143928
 C        -6.0030453334        2.8212065590       -0.0515009004
 O        -7.1697579670        3.0588046084        0.0325438349
 C        -4.9398568847        3.9323800395        0.4657476111
 C        -5.1901537019        5.1982029290       -0.4097514704
 O        -6.1519730623        5.2169786355       -1.1580018608
 C        -4.2863343710        6.4879289653       -0.3567494914
 C        -5.5465077637        4.3197857081        1.8304630378
 C        -3.4884823425        3.4817312148        0.5875055158
 C        -8.4019135943       -0.9373691565       -2.8832467319
 C        -7.2092864856       -0.3595294870       -4.9935976862
 C        -9.6411497746        5.1763556089       -7.2381728092
 C        -7.5470320760        6.3992654803       -6.3339651038
 C       -11.0032324874        8.2406572137       -0.4977600410
 C        -8.8869751427        6.8950517685        0.0407279251
 C       -14.0974536988        1.3740682242        0.8653784203
 C       -15.8282045648        2.7738434330        2.0524031421
 C       -13.8745804523        1.6313701217        9.1285051302
 C       -12.9852760943        3.6953858710        7.8456478222
 H       -10.6197920105       -0.3709482780        7.5498901449
 H       -12.2433939257       -0.6873735783        8.2201919785
 H       -10.9999898785       -0.2728960857        9.2426222514
 H       -11.9011204726        0.9545052045        5.2513186660
 H       -12.5286280089        2.7988664201        5.3381734253
 H       -14.6925075520        1.2264665596        4.1721409887
 H       -13.2735528665        0.6727393295        3.3598916683
 H       -12.5322481674        3.2905981698       -0.6529207637
 H       -11.7713614828        3.6811798496        0.9391659932
 H       -12.4607978377        6.2103717513        0.4212794049
 H       -13.1229996128        5.6519658934       -1.0802351434
 H        -9.7561378411        9.2968222783       -3.1175886010
 H       -11.1727322497        8.2915551986       -3.3001669002
 H        -8.5295222088        8.2609211713       -4.9666717012
 H        -9.8956503136        8.6782086782       -5.6317147297
 H       -10.4154605218        3.5139382514       -5.2951945039
 H       -10.0401933144        3.8003909561       -3.7301297766
 H        -8.0567278041        2.0739713365       -5.5507494534
 H        -9.6523961874        1.3386001198       -5.1451278038
 H        -6.0384582609       -0.4897622207       -0.9436639305
 H        -7.3888644545        0.6854352787       -0.9482079786
 H        -4.4359338026        1.7730061335       -1.0150775546
 H        -5.1058496682        0.9778867195        0.4543919471
 H        -3.2864813587        6.0922214146       -0.3666470802
 H        -4.4429984874        7.1811093950        0.5665753379
 H        -4.5097679444        6.9338600830       -1.3413158152
 H        -5.0348008558        5.2361368923        2.2252180826
 H        -5.3561269891        3.4879937751        2.5537692595
 H        -6.6131636642        4.5867234312        1.8555086008
 H        -2.8009135648        4.1888311648        1.1035695440
 H        -3.1491514901        3.1268945796       -0.3600124818
 H        -3.3858907287        2.6406236878        1.2849956829
 H        -9.3476800158       -0.9895518906       -3.3809343359
 H        -8.5397616644       -0.5643547762       -1.8665238508
 H        -8.0130365565       -1.9419042141       -2.8732005644
 H        -6.5131751771       -1.1890714355       -5.0535466096
 H        -6.6147141860        0.4385013183       -5.4934622955
 H        -8.0816597841       -0.5721444774       -5.6963733729
 H       -10.4962879028        4.5168210458       -7.1340925225
 H        -8.9587560573        4.6398592360       -7.9019937702
 H        -9.9258845024        6.0760425626       -7.8414617834
 H        -7.1944131476        6.9140132333       -5.4356881479
 H        -7.8078286626        7.1778372137       -7.0902652887
 H        -6.7356402912        5.7127393417       -6.6528849309
 H       -10.4097349956        9.1486797488       -0.4477368218
 H       -11.2665167039        8.1287457817        0.5628789342
 H       -11.8557033979        8.5679046379       -0.9793066996
 H        -8.5965528769        7.8863126910        0.3267102032
 H        -8.1375803336        6.3946686515       -0.4998284431
 H        -9.1817559921        6.3496677808        0.9141498914
 H       -12.9843791000        1.3117405313        0.7160522862
 H       -14.5135900598        1.3903112419       -0.1122214835
 H       -14.5006971647        0.4496999891        1.3177688529
 H       -16.3450778441        2.0333773159        1.4146973519
 H       -16.2089965955        3.8075026427        1.8058948497
 H       -15.9861994792        2.6476106948        3.1500236220
 H       -14.9570078328        1.8695694097        9.0604450745
 H       -13.5130786970        2.0448216979       10.0397103101
 H       -13.9108044335        0.5605243047        9.2992129352
 H       -11.9957979528        3.9067023296        8.1621992687
 H       -13.7498226634        4.1611140202        8.4236320714
 H       -13.0920649007        4.1065840100        6.8187355140
 Na       -8.0838457122        4.2736854815       -2.0487261865
