117

 C       -11.8065924598       -0.1464858449        8.9283045869
 C       -11.8606853040        1.1598085407        8.1063250822
 O       -10.8470682593        1.8170016918        7.8723617241
 C       -13.2327786108        1.8407791302        7.7184066540
 C       -13.5493125006        1.2795705891        6.2187808603
 O       -14.4618251958        0.5336662583        6.0915287783
 C       -12.5936020593        1.3832990524        4.9825017934
 C       -13.3021154314        1.1909686697        3.6886271059
 C       -13.8470376625        2.5093611809        3.0319796347
 O       -13.5590200303        3.6211368522        3.5124218117
 C       -14.6289689250        2.5293168736        1.6405489614
 C       -14.1981719587        3.8444201611        0.9170768230
 O       -14.9491211440        4.8007411652        0.5757731867
 C       -12.6444517694        4.0945914332        0.5619722382
 C       -12.1956530807        5.5737486438        0.5488445321
 C       -10.7212070719        5.8338084470        0.0331971403
 O       -10.0912103745        4.9152511764       -0.3449347392
 C       -10.2905243202        7.3367742521       -0.3934158536
 C        -9.8151024670        7.3675901467       -1.9240635909
 O        -8.7896890043        6.7585745195       -2.2288010222
 C       -10.5942653858        8.1827322920       -2.9276679254
 C        -9.8926017362        8.0658140276       -4.3378765685
 C       -10.2233299206        6.7575459624       -5.0415480752
 O       -11.2720320751        6.2140184737       -4.7591397692
 C        -9.2166237268        5.9906783652       -6.0126173582
 C        -8.6922596327        4.7224276187       -5.2171476570
 O        -7.9771518451        4.9039811514       -4.2692300624
 C        -9.2176192204        3.3174836907       -5.5062460442
 C        -8.1565317121        2.1316577180       -5.3912458137
 C        -7.8597525520        1.6517343811       -3.9364254410
 O        -8.1094685590        2.2661629853       -2.9506760299
 C        -7.0509851413        0.2452997173       -3.7058250399
 C        -5.9358884777        0.6203016130       -2.5997146317
 O        -4.8475103332        0.9912199552       -2.8945176290
 C        -6.2872487918        0.4774344961       -1.0884557968
 C        -5.2453318683        1.3338425584       -0.3144843544
 C        -5.6709005371        2.8242962659       -0.2185391616
 O        -6.8602466849        3.2242502192       -0.3096170454
 C        -4.5365622403        3.8137190460        0.1763470792
 C        -4.6483097317        4.9596914063       -0.9367905237
 O        -5.7300733375        5.1341976344       -1.4842814059
 C        -3.4510730283        5.7233925374       -1.4445398822
 C        -5.0706292980        4.3870901672        1.5446995609
 C        -3.1907903601        3.1113432949        0.5040253377
 C        -8.1760905624       -0.7936410509       -3.2359381663
 C        -6.2593552447       -0.2559646351       -4.8896081231
 C       -10.1937562436        5.5502442567       -7.1578290732
 C        -8.0681920594        6.7376146495       -6.7055730529
 C       -11.4374010576        8.3647031483       -0.1881901004
 C        -9.0881049267        7.6111812892        0.5967518157
 C       -14.2531590471        1.3560211338        0.6559956884
 C       -16.1596381075        2.5540743085        1.8919020579
 C       -14.3900937398        1.4622449625        8.7321700377
 C       -13.1117093173        3.3412730245        7.6714350748
 H       -12.6459249151       -0.8880375897        8.9278795926
 H       -11.7589146594        0.1643104173        9.9164287365
 H       -10.8514359486       -0.7022183035        8.6590835074
 H       -11.9122825414        0.5109221015        5.0993569208
 H       -11.9268533616        2.2925095895        5.0090893132
 H       -14.1812240361        0.6100753571        3.7825968801
 H       -12.6427002750        0.8225119621        2.8800707087
 H       -12.6524094416        3.6130089432       -0.4422966009
 H       -11.9297834505        3.5123313390        1.1651134807
 H       -12.2966668908        5.9590310141        1.5680624478
 H       -12.8318280175        6.1982768386       -0.1015559362
 H       -10.3366079502        9.1802851865       -2.5408692641
 H       -11.6131533368        8.0370709456       -3.0606052516
 H        -8.8120711755        8.0714421219       -4.1815294418
 H       -10.1220285849        8.9659057663       -5.0093009251
 H        -9.5874475302        3.2698173040       -6.5471040968
 H       -10.0227539827        3.1512432679       -4.7776699499
 H        -7.2574400096        2.2687599981       -5.9969394463
 H        -8.6499287604        1.2432186403       -5.8269020005
 H        -6.2389316168       -0.6294740591       -0.9393547251
 H        -7.2939867681        0.7361275824       -0.8989604144
 H        -4.2460550245        1.3461401405       -0.7479883106
 H        -5.1687165705        0.8705833546        0.7221233828
 H        -2.6459144335        5.0012642399       -1.6531922902
 H        -3.2485152497        6.3883540451       -0.6035114719
 H        -3.6920952835        6.4608878172       -2.2656980432
 H        -4.4213540566        5.2019175203        1.8045923291
 H        -4.9704715909        3.6234500522        2.3182807831
 H        -6.1299681133        4.6998676244        1.4571473110
 H        -2.4612514830        3.7999418563        0.8282377242
 H        -2.8016858591        2.5393406911       -0.3373914946
 H        -3.4688420044        2.4562236669        1.3007950610
 H        -8.8976870455       -0.9981749456       -4.0546998682
 H        -8.7335063752       -0.2393354733       -2.4955306922
 H        -7.6834961340       -1.6190845684       -2.7286069410
 H        -5.7518903523       -1.2082131417       -4.6542096565
 H        -5.3989400691        0.3871835403       -5.0454722863
 H        -6.6696693746       -0.3626147408       -5.8530542460
 H       -11.1206640225        5.1044653261       -6.8270039380
 H        -9.7150324758        4.9472731092       -7.9004386630
 H       -10.5063706943        6.4531726351       -7.6064418552
 H        -7.4586351322        7.3678082073       -6.0443816451
 H        -8.5609357151        7.2732780859       -7.4849608341
 H        -7.4719290562        6.0737566853       -7.2833527372
 H       -10.9486378443        9.3385423733       -0.2993416493
 H       -11.8110176409        8.4004047583        0.8223201683
 H       -12.3471124788        8.2924568235       -0.8850078082
 H        -8.6359280610        8.5583854354        0.2618602747
 H        -8.2929315697        6.8199562908        0.6449287892
 H        -9.6066508546        7.7952614756        1.5367999202
 H       -13.3247693128        1.5475796884        0.1818759130
 H       -14.9776809516        1.4188427697       -0.2088482350
 H       -14.2335686288        0.3633320678        1.0953945045
 H       -16.5904331489        3.1467467306        1.0945626076
 H       -16.3599107696        3.1715670294        2.7284492227
 H       -16.6779474899        1.6013720830        1.9060452433
 H       -15.3444247599        1.5498866646        8.2886560713
 H       -14.4021681961        2.1196598581        9.6145540965
 H       -14.2281106883        0.4596840928        9.1004357320
 H       -12.8829022106        3.7578462130        8.6742612011
 H       -14.0670202840        3.8712138864        7.5214953872
 H       -12.3511080021        3.6550134957        6.9845745584
 Na       -8.0474671730        4.4842472083       -1.8494529762
