117

 C       -11.3186706658        0.1995285563        8.5111517172
 C       -11.5028541316        1.6053928103        8.1019189440
 O       -10.5261340497        2.3058802522        7.8530222811
 C       -12.9676440979        2.1638129944        8.0148840232
 C       -13.6158687801        1.8582153392        6.5910918759
 O       -14.7859327727        1.6062030254        6.5797553379
 C       -12.7983982795        1.8775352280        5.1990289137
 C       -13.7162682130        1.6403940988        3.9773824382
 C       -13.3319045558        2.6857770034        2.9338194049
 O       -12.4220085390        3.4998288869        2.9389496774
 C       -14.3206992932        2.7393334853        1.6204761870
 C       -13.9583367508        4.0910952873        0.6934898413
 O       -14.7492784889        4.9882203960        0.5600648607
 C       -12.5038422294        4.1216508843        0.0644829514
 C       -12.2381048705        5.5198584678       -0.4684974944
 C       -10.8475977146        5.6361455748       -1.0841116209
 O       -10.3147829947        4.7283600272       -1.7099358071
 C       -10.0986349261        7.0454062741       -1.0024532582
 C        -9.4648863315        7.2135659637       -2.3718456408
 O        -8.5490379433        6.4877915471       -2.8097852938
 C       -10.0536357867        8.1612606406       -3.3604757101
 C        -9.4777977507        7.9123551842       -4.7726042480
 C        -9.7883911759        6.4676850284       -5.2267105579
 O       -10.9022873946        5.9730061903       -5.1536782352
 C        -8.7207325099        5.5519307578       -5.9318066228
 C        -8.4814011061        4.3628800703       -4.9646325343
 O        -7.4144248142        4.1685951615       -4.4057425692
 C        -9.6433971235        3.3960724861       -4.6813375581
 C        -9.3024470974        1.9525444578       -4.7467835081
 C        -8.5491376382        1.4824620349       -3.4851746811
 O        -8.7333417858        2.0638416523       -2.4204210168
 C        -7.7824960215        0.0711311845       -3.4619794053
 C        -6.4047134647        0.4355073691       -2.7025545136
 O        -5.3323608097        0.6661360058       -3.2975826099
 C        -6.3432537796        0.4899516394       -1.0937252651
 C        -5.3145150198        1.5106926020       -0.6561373959
 C        -5.9709539695        2.7878986631       -0.1023681225
 O        -7.1801149400        2.8728723413       -0.1469638617
 C        -5.1606769273        3.9511758889        0.5884724382
 C        -5.2199200490        5.2045376113       -0.3211285547
 O        -5.9094429916        5.2823707927       -1.2869258783
 C        -4.4384302582        6.4837512385        0.2399862344
 C        -5.6418380704        4.2200721919        2.0096760476
 C        -3.6077126339        3.5827534792        0.5557523025
 C        -8.4675268765       -1.0268253752       -2.6232835260
 C        -7.4706201350       -0.4739789810       -4.8275725738
 C        -9.2598751022        5.0796201917       -7.3327278259
 C        -7.3700733706        6.3351422583       -6.0211473491
 C       -10.9787700562        8.2279986849       -0.6198011410
 C        -8.9200850983        6.8230992591        0.0921965334
 C       -14.0330661152        1.4384040544        0.8551734168
 C       -15.7905914107        2.9475073313        2.0502473705
 C       -13.8464772384        1.5315554933        9.0923948301
 C       -12.8816867014        3.7160982112        8.1615233221
 H       -10.3105014086       -0.0406527512        8.5725286884
 H       -11.7314134163       -0.5215523480        7.7203892862
 H       -11.8980878049       -0.1642691911        9.3204024605
 H       -12.0915695403        1.1215982148        5.3555520902
 H       -12.3278419771        2.8791674027        5.1149701800
 H       -14.7641146015        1.6399612401        4.2046437578
 H       -13.6274541112        0.6419134544        3.5027718807
 H       -12.6635429374        3.3931127896       -0.7366955291
 H       -11.8373812411        3.7712409373        0.8362113559
 H       -12.3985730816        6.2434453131        0.3177509633
 H       -12.9912249342        5.7176208234       -1.2182739528
 H        -9.9565871429        9.2769266910       -3.2063921761
 H       -11.1604764125        7.9292316576       -3.3112485846
 H        -8.4351511847        8.2031291849       -4.7647446016
 H        -9.8010084542        8.7277614060       -5.3845923779
 H       -10.4007947950        3.6159071503       -5.4005561978
 H       -10.2181385364        3.5559096423       -3.7429917383
 H        -8.7028778226        1.7203161948       -5.6300125367
 H       -10.1559296095        1.2704775621       -4.7281609063
 H        -5.9876024959       -0.4656400530       -0.7041135723
 H        -7.3659487404        0.8388183750       -0.8089031191
 H        -4.8003355980        1.8105596467       -1.5522964899
 H        -4.5549694356        1.1345305471        0.0510583963
 H        -3.9545068330        6.3361586600        1.1855167121
 H        -5.2788602994        7.1575407648        0.3512396797
 H        -3.7651481007        6.7950010449       -0.4840682126
 H        -5.1085525683        5.0742873213        2.3944457362
 H        -5.5174731948        3.4139615640        2.6965059565
 H        -6.6729067381        4.5301357745        2.0528978231
 H        -2.9927274803        4.2847428325        1.1078285270
 H        -3.2462892063        3.5644067714       -0.4905086318
 H        -3.3368503695        2.6177357291        0.9779699957
 H        -9.3513560344       -1.4694767662       -3.1541772346
 H        -8.8073645694       -0.6595160127       -1.6529848425
 H        -7.7142896027       -1.8040473585       -2.4482513590
 H        -6.9707292727       -1.3805112213       -4.8557321097
 H        -6.8288556839        0.1859206834       -5.3674123376
 H        -8.4296696088       -0.4760800880       -5.3817163184
 H       -10.3121636053        4.8844743455       -7.4480383126
 H        -8.7127174704        4.1973687609       -7.6137975861
 H        -9.0448887758        5.8791827105       -8.0556333841
 H        -6.7802652669        6.2286540469       -5.1638168154
 H        -7.4514411841        7.3595282824       -6.3435185509
 H        -6.8092269129        5.8759707974       -6.8847148564
 H       -10.4045198891        9.2106488015       -0.6485085600
 H       -11.2507981789        8.2815333150        0.4551302023
 H       -11.8459631678        8.4372099656       -1.1645295661
 H        -8.1235072191        7.6166225101        0.0020473754
 H        -8.5186851792        5.8279853930        0.0058617300
 H        -9.5128764837        6.9042806393        1.0308871097
 H       -13.0520634882        1.3403029083        0.4719641782
 H       -14.6540507506        1.3140096707       -0.0501408797
 H       -14.3180295449        0.6115529624        1.5106085924
 H       -16.3803089028        2.1859928376        1.5575930915
 H       -16.1388887470        3.9285813563        1.8076856096
 H       -15.8983506531        2.7741491670        3.0687692433
 H       -14.7994769438        2.0475681808        9.1600496830
 H       -13.4785325382        1.5725354600       10.1252917287
 H       -14.0124131653        0.4555214814        8.9504089402
 H       -12.3548915256        4.0125122856        9.0675486136
 H       -13.8987343094        4.1391387789        8.1392378099
 H       -12.2948463423        4.0561710888        7.2768887396
 Na       -7.9767953971        4.2683006988       -2.1077463026
