117

 C       -11.2851553059        0.3177602188        8.5446917152
 C       -11.4398590982        1.7014444185        7.9370254940
 O       -10.5569283095        2.1337764336        7.2262892011
 C       -12.8661641836        2.3484898394        8.0839445521
 C       -13.6270546976        2.2406207351        6.6110456956
 O       -14.6877418182        1.6329308803        6.4866601902
 C       -12.7411393733        2.7051836084        5.4413969760
 C       -13.6897821009        2.3553419201        4.2449391635
 C       -13.2107390332        2.8224967106        2.8516702726
 O       -12.1014419786        3.3117617808        2.6442414450
 C       -14.2334778758        2.8372130194        1.6670307246
 C       -14.0124796496        4.0328989430        0.7209112558
 O       -14.7669389395        4.9695218145        0.7460245435
 C       -12.7751977116        3.9784277136       -0.3353070053
 C       -12.2322610476        5.4799588561       -0.4241674747
 C       -10.7167574492        5.5653220720       -0.9878450168
 O       -10.1546465973        4.5149778417       -1.2229352647
 C        -9.9873996350        7.0029376948       -1.1406305181
 C        -9.4249975654        6.9899590563       -2.5442837792
 O        -8.4554404561        6.3763758431       -2.8795155588
 C        -9.9600318609        7.9809251352       -3.6566470651
 C        -9.2756141970        7.7067272815       -4.9865982376
 C        -9.6697348322        6.3056949322       -5.6079757698
 O       -10.8071549894        5.9265757575       -5.6973339206
 C        -8.4841855129        5.2534701846       -5.9818141154
 C        -8.5630895148        4.1436810254       -4.9201826382
 O        -7.6380352174        3.9424620637       -4.1473951022
 C        -9.8017949423        3.2784344407       -4.9657748569
 C        -9.2225863004        1.8061947598       -5.0112511459
 C        -8.8744075462        1.3328810251       -3.5443339045
 O        -9.1789922739        2.0266476413       -2.6068224053
 C        -8.0160400901        0.0283566751       -3.3119739236
 C        -6.6472191790        0.5934088097       -2.7529258305
 O        -5.7737859552        1.0336258588       -3.4004940856
 C        -6.5644397069        0.5470961670       -1.0765554841
 C        -5.4136873366        1.4293176000       -0.6117127271
 C        -5.9309464818        2.8346047294       -0.1238068552
 O        -7.0943607324        3.1188086186       -0.2424344932
 C        -5.0264736548        3.7961048429        0.6737520437
 C        -5.1926291679        5.2915898882       -0.0156374026
 O        -6.0867174255        5.4733159819       -0.8703716499
 C        -4.5648564664        6.4748932829        0.6621919924
 C        -5.5688672291        4.0379959455        2.1363976232
 C        -3.5367684097        3.4369555872        0.5966985937
 C        -8.7209986195       -0.8818891605       -2.2943672132
 C        -7.7418102037       -0.7423178342       -4.6318014526
 C        -8.8372350645        4.9179973809       -7.4870521471
 C        -7.0735725936        5.9890527123       -5.9280205560
 C       -10.9388300806        8.1921778768       -0.8144977754
 C        -8.8912697817        6.9893567900       -0.0543136647
 C       -14.0329768232        1.4400775913        1.0075085759
 C       -15.7795086452        2.8266788883        2.1936563539
 C       -13.7287805400        1.7797332306        9.2559004766
 C       -12.7568440587        3.8761835261        8.3566924444
 H       -10.4370559113       -0.2973174789        8.1710212639
 H       -12.1267988539       -0.2954064979        8.3803350315
 H       -11.1382777990        0.2940512964        9.6347662492
 H       -11.6875464913        2.3280198383        5.5341364760
 H       -12.5683327225        3.7753276072        5.3269625029
 H       -14.6704090490        2.7965731739        4.3312412869
 H       -13.8294153712        1.2711236755        4.2064220910
 H       -13.2066042521        3.7968349809       -1.3329212106
 H       -12.0144233218        3.2619425058       -0.0192429995
 H       -12.2945259535        6.0563562146        0.5045596129
 H       -12.8461368525        5.9326652394       -1.1539014244
 H        -9.8101775802        9.0005074105       -3.2739790225
 H       -11.1060392234        7.8934937404       -3.8330425459
 H        -8.1755283888        7.7080250612       -4.7639560228
 H        -9.5703408141        8.4520820081       -5.6961343768
 H       -10.3578026573        3.4028616933       -5.8984401836
 H       -10.4457365871        3.4130596842       -4.0771122925
 H        -8.3462966048        1.6696778204       -5.6564584446
 H       -10.0201817198        1.1586405284       -5.3680595064
 H        -6.3352582155       -0.4599002558       -0.7860928825
 H        -7.4933938943        0.9419808038       -0.5372217175
 H        -4.6469161225        1.6244274862       -1.3803957843
 H        -4.8907026926        0.9618682102        0.1950826592
 H        -5.3001085335        6.9858134247        1.2105055016
 H        -4.1714219595        7.0773330022       -0.1031499330
 H        -3.8903163963        6.0741560659        1.3703786055
 H        -5.0754595827        4.8542281675        2.6431178203
 H        -5.5190266258        3.2394991854        2.8622243257
 H        -6.6026486609        4.2503531825        2.1063956459
 H        -2.9241354217        4.2654922320        0.9524936527
 H        -3.0759543636        3.2311488586       -0.3148024897
 H        -3.3556989444        2.6009499081        1.2328111008
 H        -9.7190781553       -1.1821126577       -2.6051041883
 H        -8.8661927793       -0.3898378787       -1.2953577486
 H        -8.0957037458       -1.7670532621       -2.0739776048
 H        -7.4178194904       -1.7707915847       -4.4042671390
 H        -7.0294570113       -0.1685621235       -5.2226369532
 H        -8.6241283318       -0.8740559991       -5.2020488987
 H        -9.7502649837        4.3527625190       -7.5332439554
 H        -8.0340872262        4.3591130295       -7.9343045015
 H        -8.9238193544        5.8190439199       -8.0636060458
 H        -6.7435764687        6.0036467778       -4.8730948764
 H        -7.0689601807        7.0279706378       -6.2936468344
 H        -6.3610125730        5.5240906939       -6.4968184144
 H       -10.5140340180        9.1654787459       -0.9500334177
 H       -11.3501634084        8.1634438801        0.2057443444
 H       -11.9317260365        8.2228127630       -1.3790030216
 H        -8.5795316711        7.9433667424        0.3700143904
 H        -8.0461235836        6.3988978656       -0.5231405789
 H        -9.3759080428        6.3544229164        0.6948060313
 H       -12.9791305676        1.4371450836        0.5692658854
 H       -14.6639326871        1.2119084499        0.2087574128
 H       -13.9874761645        0.6387250161        1.7354193998
 H       -16.3259582764        3.3477690487        1.4876129111
 H       -15.9461026430        3.3356230611        3.1184693428
 H       -16.2288219807        1.8312573379        2.1571292793
 H       -14.6590236164        2.3851488432        9.3893325054
 H       -13.2484381702        1.8195261469       10.2120282755
 H       -14.1370432670        0.7846532169        9.1036032683
 H       -12.3535253697        3.9880036835        9.3785893785
 H       -13.7648973031        4.2833327514        8.4667570717
 H       -12.1260607410        4.3632835712        7.5776114580
 Na       -7.9880485952        4.3719883695       -1.9802805499
