117

 C       -11.0491667875        0.6661391442        8.6224720510
 C       -11.3289053058        1.7089257730        7.6410119781
 O       -10.7335205846        1.9226183425        6.6156275858
 C       -12.5594329965        2.7250036583        7.9733267831
 C       -13.5978175925        2.4016273963        6.7861991791
 O       -14.3651165306        1.4613433003        6.7754842909
 C       -13.3817656386        3.3419757575        5.5595597287
 C       -14.3357900610        3.0434319659        4.3856203205
 C       -13.4782506774        3.0317948110        3.0982742489
 O       -12.3045238663        3.0825255643        3.0805969132
 C       -14.3190445333        2.8494082519        1.6861255582
 C       -14.0063094710        4.1802634340        0.8950171911
 O       -14.8858546067        5.0251615970        0.7828045071
 C       -12.5091928351        4.4305456432        0.4665498507
 C       -12.3406499529        5.6633369645       -0.3599743387
 C       -10.8056529839        5.8581490638       -0.8210690901
 O       -10.0300538410        4.9010744488       -0.7511155807
 C       -10.3665772506        7.1813437980       -1.4655805460
 C        -9.6583748311        6.9585769972       -2.9146122496
 O        -8.8341545067        6.0792968795       -3.0666227348
 C       -10.0031787194        7.8670340978       -4.1699396153
 C        -8.9981786724        7.6164360075       -5.3088943468
 C        -9.2466194523        6.2429907493       -5.9344211759
 O       -10.3663932460        5.7550786804       -6.0643847145
 C        -8.0855908088        5.1722236162       -6.2339696495
 C        -8.2828599596        4.0270472743       -5.1519038680
 O        -7.4551821953        3.9046075282       -4.2262262724
 C        -9.5493173473        3.0659677599       -5.2909875779
 C        -9.1573632755        1.6271173607       -5.0281014544
 C        -8.9772445695        1.3044146898       -3.5192099284
 O        -9.2035090801        2.1448878795       -2.6265377429
 C        -8.3810495196       -0.0103414640       -3.1146558187
 C        -6.8909335510        0.4693408114       -2.4444524657
 O        -5.9634228394        0.8850044881       -3.1646977324
 C        -6.7182244291        0.3085290519       -0.8840270315
 C        -5.5500352821        1.0901379326       -0.3643573534
 C        -6.0253988589        2.4903441950        0.2558312297
 O        -7.1756297562        2.7261920888        0.3170107653
 C        -5.0104919614        3.5871337635        0.7772856392
 C        -5.4478191984        4.9983742659        0.2364665092
 O        -6.3190434201        5.1838435098       -0.5929336973
 C        -4.4842253325        6.2606824650        0.5885315125
 C        -5.0508672850        3.5883631684        2.2693643702
 C        -3.4664087006        3.4453969050        0.2857876463
 C        -9.4434137237       -0.6045214331       -2.1078543480
 C        -7.9956501403       -0.9903126404       -4.3184191157
 C        -8.2261420446        4.5524465914       -7.6474254586
 C        -6.7138703273        5.8654838823       -6.1483314518
 C       -11.4455183922        8.2803394342       -1.5273764225
 C        -9.1601635242        7.6836647421       -0.5660301432
 C       -13.6634681440        1.5390058950        1.1502106914
 C       -15.9222412434        2.6931052113        1.8911198242
 C       -13.3122798847        2.7258989942        9.3217177673
 C       -11.8277548238        4.1495636254        7.8456290389
 H        -9.9840493633        0.4097505226        8.6954543807
 H       -11.5982092031       -0.2114201333        8.4003382491
 H       -11.2478522019        0.9301881457        9.6864437316
 H       -12.3629542256        3.2901007270        5.2353843466
 H       -13.5203886218        4.2975612743        5.9976557195
 H       -15.0529451942        3.8709280497        4.4023601300
 H       -14.7430865996        2.0565482021        4.6500301156
 H       -12.1018130469        3.5435468136       -0.0001317690
 H       -11.9643796647        4.4841175809        1.4016506880
 H       -12.7198343898        6.5686543836        0.2218755448
 H       -12.9371479921        5.5621189779       -1.2884771206
 H       -10.0181413729        8.8892650123       -3.8709019284
 H       -11.0411147961        7.6516852589       -4.4916175074
 H        -8.0394043012        7.5759201884       -4.8655198585
 H        -9.2999243070        8.2946631176       -6.0906546098
 H        -9.9639471737        3.0841807350       -6.3142422305
 H       -10.2531917039        3.3138061864       -4.5310355370
 H        -8.2307673121        1.3554207704       -5.5523950705
 H        -9.8777750436        0.8937278690       -5.3772170711
 H        -6.6662585625       -0.7750457258       -0.6904791210
 H        -7.6636939105        0.6056912001       -0.3574415341
 H        -4.7961202170        1.3485430919       -1.1500112895
 H        -4.9594454221        0.4991865671        0.3090412753
 H        -4.9404334216        7.0227571559       -0.1176520628
 H        -3.4657452776        6.0030668196        0.3430149627
 H        -4.5232568091        6.5023213055        1.6784137812
 H        -4.3205882595        4.1809826805        2.8022163644
 H        -5.0418794529        2.5836277031        2.7015301119
 H        -5.9589015985        4.0561018525        2.6907451907
 H        -2.8398310289        4.2433954215        0.6586148954
 H        -3.3845042018        3.1696220324       -0.8003688162
 H        -2.9627838404        2.5868066934        0.7539300856
 H       -10.1098479991       -1.2725231873       -2.6181164375
 H       -10.0534369287        0.1170493908       -1.6009216366
 H        -9.0124623344       -1.2247406783       -1.3173917668
 H        -7.4881392835       -1.9133086559       -3.8890980940
 H        -7.2629773613       -0.5974941269       -5.0354912152
 H        -8.9322774793       -1.1493633636       -4.7668280976
 H        -9.1008880439        3.8530740101       -7.6134637515
 H        -7.3058622187        3.9480799295       -7.8475404103
 H        -8.5192755115        5.2722828632       -8.4070033063
 H        -6.4686275462        6.2855376053       -5.1399670922
 H        -6.6173484473        6.7088389134       -6.8386779648
 H        -5.8759996970        5.1536145040       -6.2657945985
 H       -11.1064079118        9.1318665164       -2.0869209941
 H       -11.6713187139        8.5863854336       -0.5287571139
 H       -12.3533805069        7.8524669935       -2.0222108264
 H        -9.1039344805        8.7606207558       -0.5980083337
 H        -8.2570782634        7.1575966028       -0.8887554983
 H        -9.3572287848        7.3691702919        0.4490334882
 H       -12.6673316921        1.7702361564        0.7664001250
 H       -14.2406820055        1.2797356440        0.2143927666
 H       -13.6166058404        0.6374446272        1.7729862824
 H       -16.3539126801        2.5737824582        0.8719793428
 H       -16.3727934186        3.5980965259        2.3532954528
 H       -16.2338750414        1.8506899558        2.5420375305
 H       -14.1558297685        3.4161568080        9.2359755558
 H       -12.6645550760        3.0943188568       10.1505125529
 H       -13.6613083430        1.7200469966        9.6092591781
 H       -10.9967627272        4.0497948217        8.5435810446
 H       -12.5192819510        4.9141636628        8.1388653716
 H       -11.3999655084        4.3606216251        6.9183252125
 Na       -8.1154331914        4.0390029625       -1.7735833941
