117

 C       -11.6733751168        5.6687024563        0.4604353833
 C       -10.8339340184        5.1079631405        1.5966134331
 O        -9.8840659295        4.3496936071        1.2564155224
 C       -10.9554408809        5.4019699845        3.1697604926
 C       -11.6468318785        4.2197386937        3.8819338344
 O       -11.1696871762        3.1163320675        3.9520370223
 C       -13.0590875068        4.4593576980        4.6769024496
 C       -13.9989176094        3.2314097930        4.2693704079
 C       -14.3694385444        3.3536242034        2.6779587408
 O       -14.2326617491        4.4792550164        2.2458416922
 C       -15.0085375199        2.1578984260        1.8435140527
 C       -14.0016262540        0.9914066605        1.9895720390
 O       -12.9166523825        1.0731407841        2.4376818762
 C       -14.3286049072       -0.4184706546        1.2088620397
 C       -13.2510875461       -1.4796377397        1.2602623307
 C       -12.1009166408       -1.0571076481        0.4658415193
 O       -11.6956339565        0.1544074015        0.4401910833
 C       -11.5670128016       -2.1691461143       -0.5279693003
 C       -10.0309431949       -2.4656247372       -0.0349116284
 O        -9.7491143165       -3.5813943441        0.1924766196
 C        -9.0169437083       -1.2621585989        0.2004499645
 C        -8.0557468313       -1.4287613224        1.3867918375
 C        -8.1983188073       -0.1653391423        2.1516207351
 O        -9.2248399117        0.1089814396        2.6472902970
 C        -7.0749976876        0.8568319005        2.2354436575
 C        -7.5122172885        2.0740354919        1.1997950509
 O        -8.6785150355        2.1808084182        1.0400948618
 C        -6.5496167278        3.1117706542        0.5980732943
 C        -7.2925885779        4.1063616357       -0.3008006110
 C        -6.4655143958        4.9425817770       -1.1921783077
 O        -5.4806891022        5.4740151305       -0.7511124525
 C        -6.6708135533        5.0178017647       -2.7067227578
 C        -8.0567730202        5.9045942144       -2.8883003989
 O        -8.7961690930        5.8946416974       -1.9605983764
 C        -8.4647505728        6.5724274276       -4.2376504507
 C        -7.7320458073        7.8176012615       -4.2976811569
 C        -8.3046610093        8.9136821646       -5.2390708162
 O        -9.5078991558        8.7677774689       -5.4222308175
 C        -7.5514391265       10.0998812623       -5.9205991254
 C        -6.8469431632        9.4498295569       -7.2988232544
 O        -6.7563040200        8.2711710620       -7.4574594761
 C        -6.1798813128       10.4799352490       -8.2870660975
 C        -8.7057333635       11.1071488387       -6.4550902911
 C        -6.6079675994       10.8546489151       -4.9346072459
 C        -5.2950566698        5.4079479035       -3.5696752438
 C        -6.9138812734        3.5165063183       -3.1810981911
 C        -6.9684951294        1.6344412325        3.5694243431
 C        -5.6542353798        0.2394508081        1.9959526054
 C       -12.3163295814       -3.5383498378       -0.7389023174
 C       -11.6049332221       -1.3602681382       -1.8812795153
 C       -16.4260261193        1.7507033084        2.2976925753
 C       -14.8800600207        2.5526649348        0.3581672565
 C        -9.5017355100        5.5897606732        3.6321991117
 C       -11.6973619116        6.7332095930        3.4697989128
 H       -12.7155968024        5.2984512324        0.5149730072
 H       -11.2372508317        5.3435953509       -0.4365799311
 H       -11.5644510482        6.7667679399        0.5170470536
 H       -13.4545862077        5.3174293537        4.1342375627
 H       -12.7880270185        4.5821999174        5.7670547127
 H       -15.0440906117        3.4722507704        4.7080343341
 H       -13.5881747466        2.2901370235        4.7167216270
 H       -14.5311990203       -0.1969343992        0.1817622659
 H       -15.2254684918       -0.7936792834        1.7174186300
 H       -13.7165986460       -2.4447846369        1.0426790616
 H       -12.9142796075       -1.4893758526        2.2926733183
 H        -9.5609630991       -0.2782824387        0.3764044306
 H        -8.3847978051       -1.2026932563       -0.6898458108
 H        -7.1003919503       -1.5277047049        0.9242083818
 H        -8.4497373994       -2.4112026279        1.7489417186
 H        -5.5767785387        2.9844836999        0.2250706702
 H        -6.1993762459        3.7930625615        1.4757003749
 H        -7.8857625858        4.7159047587        0.3927342392
 H        -8.0454652721        3.4882784500       -0.8510676083
 H        -9.5532613072        6.7084178640       -4.3125237775
 H        -8.2828766319        5.8947268927       -5.1156575997
 H        -6.6778801776        7.6610725016       -4.4896401316
 H        -7.7581058507        8.1521533053       -3.2378925442
 H        -6.5396721903       11.5797450996       -8.1768006054
 H        -6.3366389024       10.1503717684       -9.2499038483
 H        -5.1059230805       10.2995175878       -8.1084276411
 H        -8.2593182979       12.0573185996       -6.4164696429
 H        -9.5750705065       11.1484566981       -5.8941260671
 H        -8.9793820235       10.9859193432       -7.4543721380
 H        -5.9783900437       10.0733143878       -4.5781660864
 H        -7.3526820229       11.1246640974       -4.0816322274
 H        -6.2473528562       11.6870627985       -5.4808271560
 H        -5.7236388505        5.7052178174       -4.5994525559
 H        -4.6884895726        4.5752677722       -3.7750395802
 H        -4.8116216130        6.3215499270       -3.2134841713
 H        -6.1909981780        2.8305851188       -2.8406490874
 H        -6.7647565151        3.5810782519       -4.2337957833
 H        -8.0111219494        3.2166445733       -2.9455389090
 H        -5.9827818123        2.0652731439        3.5830405095
 H        -7.1043030347        1.0776673373        4.5061836802
 H        -7.5756009223        2.4725609211        3.5750546624
 H        -4.8247267650        0.7250362452        2.4847731726
 H        -5.3997225515        0.1635394324        0.9738770094
 H        -5.7052359611       -0.7844659508        2.2455954347
 H       -13.3290932785       -3.3577282296       -1.1097239837
 H       -12.4528577301       -4.0046175609        0.2639801417
 H       -11.6601712128       -4.1684389020       -1.4050042364
 H       -12.6770190505       -1.1627567528       -2.0873387787
 H       -11.4037836887       -1.9394879355       -2.7710575529
 H       -11.0045796065       -0.4434810789       -2.0283623824
 H       -16.7228025079        2.1028773791        3.3007084243
 H       -16.7445630952        0.7053895373        2.2031711439
 H       -17.2475233956        2.2645919741        1.7482288395
 H       -15.5345922057        3.4298494602        0.2061795091
 H       -15.2067160086        1.7571527074       -0.3400202039
 H       -13.8762840516        2.7589967097        0.1374197032
 H        -9.6510459193        5.4073499735        4.7322155192
 H        -9.2158896274        6.5857343947        3.3852348527
 H        -8.8000453324        4.9054518642        3.2149234516
 H       -11.4893675846        6.9756278380        4.5603070446
 H       -12.7557380534        6.8393523395        3.1810094414
 H       -11.1730821465        7.5574918451        2.9930759396
 Na      -10.9510485069        2.1187542145        1.7376314922
