117

 C        -7.1512726750       -5.8576365378        2.4188526038
 C        -6.3557445207       -4.9872098740        3.4073071615
 O        -5.3610515798       -4.3769995421        3.0764828570
 C        -7.0650747574       -5.1246444358        4.9939713356
 C        -7.0784310160       -3.6277029641        5.5568898718
 O        -6.2184287111       -3.2595072862        6.2522295104
 C        -8.2383292254       -2.7181906598        5.2407688146
 C        -8.0118795878       -1.3668729281        5.7739314434
 C        -7.9966216941       -0.2315250491        4.6591088451
 O        -8.2631379861       -0.5469428695        3.5040848058
 C        -8.0440924608        1.2431365841        5.1431220031
 C        -7.9104135752        2.3358054302        3.9777138472
 O        -6.9145529053        2.9735824214        3.6866946334
 C        -9.1776943452        2.6103047464        3.0669014256
 C        -8.6359814991        2.6448752900        1.6330054576
 C        -9.6157985518        3.2609105357        0.6853267304
 O        -9.5603996174        4.4584898039        0.4604498800
 C       -10.6937871728        2.3652107245       -0.0011343393
 C       -12.0355181823        2.7994839740        0.7228808785
 O       -12.0276405672        3.1133893276        1.9226567631
 C       -13.4712388480        2.6009021521        0.0170961704
 C       -14.2946214610        3.8908340916       -0.0581621995
 C       -13.5422209832        4.9901364445       -0.8009694180
 O       -12.4715682593        5.3257654677       -0.3163907055
 C       -14.1147994231        5.9209243743       -2.0323239920
 C       -12.9995889436        6.0247157969       -3.1944523425
 O       -11.8675994178        5.6754427321       -2.9670411082
 C       -13.6083301799        6.3175643134       -4.5637569733
 C       -12.7252356569        7.0226374286       -5.7056427118
 C       -12.4659531232        8.5362167678       -5.3805182107
 O       -13.2542018737        9.0756117773       -4.5940607050
 C       -11.2140146365        9.2984987878       -6.0055172835
 C        -9.9335997636        9.2119770185       -5.0242624221
 O        -8.9303916821        8.5956381056       -5.2769984517
 C       -10.0755579878       10.1958494912       -3.7729548924
 C        -8.8666552313        9.7541675958       -2.8546803308
 C        -8.9141348447        8.3039209271       -2.3851922455
 O        -9.9922133451        7.8492854184       -2.0693748471
 C        -7.5674081138        7.5293109158       -1.9230056886
 C        -7.4410014061        6.1237045763       -2.5390272880
 O        -8.4663782599        5.4442762670       -2.4282868511
 C        -6.2621546973        5.6658439413       -3.4113770723
 C        -6.3202308597        8.4602709172       -2.2106277595
 C        -7.7248935364        7.5387980525       -0.3770317278
 C       -10.7160496098        8.5870099274       -7.3847831189
 C       -11.4977743786       10.7579320240       -6.2337171575
 C       -15.4736113363        5.4544280674       -2.6090599256
 C       -14.1192484802        7.3558260219       -1.5081324132
 C       -10.5475276787        2.5076203383       -1.5169770019
 C       -10.6434338788        0.8829540112        0.4323846663
 C        -9.3652194008        1.5510443730        5.9070971156
 C        -6.8486976556        1.6631914393        6.0851654744
 C        -8.5590952961       -5.6715560265        5.0523510013
 C        -6.0056198719       -5.8642551108        5.8628834436
 H        -6.6399498145       -6.8284399117        2.3958434350
 H        -6.9593923580       -5.4533366220        1.4102592920
 H        -8.1588955924       -6.0383889474        2.5522231331
 H        -9.0275936224       -3.1313629243        5.7727633997
 H        -8.3334015365       -2.6998221837        4.1892530113
 H        -7.2525565451       -1.4953478874        6.5005174932
 H        -8.8906487423       -1.0248480864        6.4303141422
 H        -9.7548417082        3.4438822256        3.3108579185
 H        -9.8509274491        1.7447790441        3.0920364231
 H        -8.4050739982        1.5833023952        1.4659273758
 H        -7.6956042332        3.2849208470        1.5662589932
 H       -14.0585133416        1.7770455440        0.4947467277
 H       -13.3172624791        2.1522960517       -1.0199734122
 H       -14.6285065863        4.3802787860        0.9107547695
 H       -15.3562800636        3.6963037249       -0.4215956698
 H       -14.4677537602        6.8825891796       -4.3168288899
 H       -13.8741702869        5.4406574911       -5.1431589160
 H       -13.3529315616        7.1831971829       -6.5544669246
 H       -11.9346468542        6.4266680776       -6.0708123932
 H       -10.9773434150       10.0436416873       -3.2775925194
 H        -9.9499284613       11.2836950684       -4.0591899328
 H        -8.8853308626       10.3392907467       -1.9777606686
 H        -7.8686130788       10.0904031577       -3.2764317557
 H        -6.3354875524        6.1091572796       -4.4663558969
 H        -6.3138995480        4.5811334080       -3.4352001344
 H        -5.3493703252        6.0453212422       -3.0528267298
 H        -6.3030104987        9.3945486146       -1.6057357278
 H        -6.1647938605        8.6586579102       -3.2667428972
 H        -5.4829270781        7.8724809951       -1.8086444617
 H        -7.6474966334        8.6175708052       -0.0856395015
 H        -7.0934397088        6.9734771414        0.2314675392
 H        -8.7155905573        6.9618732008       -0.0390780597
 H       -11.4447123915        7.9902828547       -7.8212774604
 H        -9.7946315344        8.0224442554       -7.3262347329
 H       -10.5116883831        9.3738208972       -8.0995843889
 H       -10.5502530559       11.2281632035       -6.3679084541
 H       -12.0581776967       11.2555584019       -5.3934405010
 H       -12.0939608367       10.8033336770       -7.1594756983
 H       -16.2435479367        5.2835560182       -1.8384393010
 H       -15.2992855967        4.5350673264       -3.1397656012
 H       -15.9594943749        6.3028309328       -3.2249530375
 H       -14.3576045745        7.5151455530       -0.4724841946
 H       -14.8049241701        7.8358751529       -2.1068294162
 H       -13.1801702975        7.8501671252       -1.6300347382
 H       -10.9601482767        1.7230518540       -2.0081362402
 H        -9.4517354418        2.4791215236       -1.7892327606
 H       -10.9294610928        3.4505026897       -1.9328426990
 H       -10.5001366704        0.6959197310        1.5031687703
 H        -9.9094114344        0.2879783156       -0.0777815480
 H       -11.6432476964        0.4452571092        0.2851443175
 H        -9.1727808392        1.6237200557        6.9534258723
 H       -10.1855857223        0.8156551760        5.7971920238
 H        -9.7068346602        2.5385510733        5.5937553897
 H        -6.4271034746        0.9196249059        6.7016656936
 H        -7.0994557242        2.4646305956        6.7655824774
 H        -6.0740423248        2.0875463087        5.5415354513
 H        -9.2696891563       -4.9577028997        4.6364054187
 H        -8.7511996184       -5.7477521414        6.1493164274
 H        -8.7787303402       -6.5764321086        4.4897350378
 H        -5.1302589231       -5.4569283547        5.4826323935
 H        -6.0036059644       -6.9118005961        5.6573219661
 H        -6.1036230367       -5.8165790190        6.9113878426
 Na      -10.4138915952        5.8662828025       -1.1625048528
