117

 C       -11.9564923090        0.9390040551        7.9183575038
 C       -11.1726790551        2.1969635274        8.0210855193
 O        -9.9838171163        2.1586179258        8.2515972496
 C       -11.8964651072        3.6394811426        8.0253875686
 C       -13.0444465269        3.6879450029        6.9167499527
 O       -14.2173151966        3.6737089940        7.1971028440
 C       -12.5929337625        3.7139380350        5.3827048515
 C       -13.7929894032        3.9468509546        4.4493655809
 C       -13.3517634472        3.3283205350        3.0197331868
 O       -12.2000018439        2.9526855853        2.8226801671
 C       -14.4480564909        3.3188992754        1.9835239336
 C       -14.1669635169        4.6140434168        1.1039505911
 O       -14.8286628565        5.5953126549        1.1955846264
 C       -13.0850084878        4.4290994707        0.0557615414
 C       -12.6738555444        5.7582249540       -0.6280370013
 C       -11.3091480486        5.6911890872       -1.2971548988
 O       -10.6101585608        4.6994250448       -0.9944312641
 C       -10.8104386279        6.8691372991       -2.2918254194
 C       -10.2712678903        6.3939730897       -3.6987581901
 O       -10.1451173902        5.1729334557       -3.8645619599
 C        -9.8065796016        7.4572867071       -4.7046968708
 C        -8.4352483809        7.0169915035       -5.2849834994
 C        -8.5006842570        5.7086870282       -6.0909523445
 O        -9.4884541979        5.4958212624       -6.7405793464
 C        -7.1485935581        4.9194480130       -6.2658349165
 C        -7.1704983218        4.0561338091       -5.0054825418
 O        -6.9862257351        4.6125237320       -3.9148429549
 C        -7.5093359237        2.5208130999       -5.0455944703
 C        -7.1952368017        1.7045735094       -3.7012354032
 C        -8.5716985287        1.3311256851       -2.9716948477
 O        -9.4464267295        2.2084551270       -2.8483446213
 C        -8.7591486271       -0.0932653655       -2.3869860578
 C        -7.4919682777       -0.4215793536       -1.2487463101
 O        -6.4078954712       -0.6377458139       -1.6918058997
 C        -7.6518701064       -0.2613378187        0.2335212116
 C        -6.5674695933        0.7439403427        0.6603081272
 C        -6.6851221501        2.0980630519        0.0115351785
 O        -7.6664768923        2.2865926700       -0.7004451990
 C        -5.3589129926        3.1205738050        0.0867179785
 C        -5.8338412953        4.5834819291       -0.0795771626
 O        -6.9550424940        5.0219427832       -0.2702362389
 C        -4.6880547654        5.5980640552        0.1690738142
 C        -4.7126919136        2.9643511407        1.5053131393
 C        -4.4716425814        2.6989758819       -1.1859853904
 C       -10.0832714347       -0.1114133609       -1.6071164094
 C        -8.4743096775       -1.0319627914       -3.5724884032
 C        -7.3010093014        4.0550478732       -7.5344187229
 C        -5.9381262598        5.8629510235       -6.3591744222
 C       -12.0067174453        7.7957653991       -2.5709906620
 C        -9.6435507896        7.5690413680       -1.4971814486
 C       -14.4332785901        1.9869339723        1.1927798146
 C       -15.8809753287        3.4887013455        2.5787737768
 C       -12.5780545426        3.7017827939        9.4142916266
 C       -11.0018373730        4.9080332772        8.0188304789
 H       -11.8524927838        0.4575043022        6.9776184334
 H       -13.0895276361        1.0715179977        8.1085235276
 H       -11.6394368340        0.1385097148        8.5851397534
 H       -12.1392400505        2.7182054060        5.2186883130
 H       -11.7452573337        4.4270061582        5.3706561046
 H       -14.0437069758        4.9875632365        4.4452214914
 H       -14.6241290615        3.3049496969        4.9278138448
 H       -13.5306938047        3.8417726604       -0.7570698554
 H       -12.2556172078        3.8178797637        0.4961807996
 H       -12.6058792370        6.5957402598        0.0306577296
 H       -13.4208400507        5.9616373628       -1.3788814651
 H        -9.6463512352        8.3550194471       -4.2148382824
 H       -10.5775059590        7.3872126418       -5.5225650531
 H        -7.7964556081        6.8992358312       -4.3790636726
 H        -8.0952285240        7.7769271977       -6.0286591025
 H        -6.8505487184        2.0961464811       -5.7955346447
 H        -8.5927815483        2.3374895402       -5.2693321844
 H        -6.6316202763        2.3796486705       -3.0357275873
 H        -6.5280113931        0.8719761717       -3.8177451511
 H        -7.4618457329       -1.1814543224        0.7201245631
 H        -8.6366606710        0.0000926818        0.5532008540
 H        -5.5613988991        0.3437142773        0.5652842676
 H        -6.6756013883        0.9498404999        1.7704296618
 H        -4.1001549937        5.2040011247        1.0413927346
 H        -5.1247174766        6.5365789366        0.3210203502
 H        -4.1863462081        5.6646660146       -0.7532030891
 H        -3.6149849125        3.0653405195        1.5248600459
 H        -4.9790314316        1.9080652855        1.7179922208
 H        -5.1960401484        3.6950164265        2.2312404306
 H        -3.5833819721        3.2805083249       -1.3034006162
 H        -5.1566711601        2.9191111709       -2.0594771303
 H        -4.2828021462        1.6371039205       -1.0990483285
 H       -10.9212757823        0.1768160827       -2.2179918682
 H       -10.0454187930        0.6616073084       -0.8791165075
 H       -10.1857823185       -1.0979854153       -1.1388422818
 H        -8.9633788124       -2.0326620771       -3.3705206727
 H        -7.3749318911       -1.1770425541       -3.7068208658
 H        -8.9038968530       -0.6579280901       -4.5028282317
 H        -8.1913474466        3.4011892992       -7.3944459341
 H        -6.4055885065        3.4038876794       -7.7343696203
 H        -7.3668073458        4.6397057156       -8.4557779230
 H        -5.7319949489        6.1239117221       -5.3245239875
 H        -6.1351024385        6.7026370499       -6.9793317951
 H        -5.0139319314        5.3599805223       -6.8341828150
 H       -11.6649591641        8.7283636200       -3.0974543456
 H       -12.4875707600        8.1625223708       -1.6220786362
 H       -12.8192330466        7.3402278129       -3.0716875577
 H        -9.1006712359        8.3558501748       -1.9915275582
 H        -8.8326108563        6.9405798463       -1.2753684744
 H       -10.0494355596        7.9275929793       -0.5450100793
 H       -13.4772320024        1.7343970740        0.8342638497
 H       -15.0502995362        2.2369586828        0.2659989829
 H       -14.8643515703        1.1983234924        1.8204149194
 H       -16.6267000933        3.6805555043        1.7351316008
 H       -16.0058353877        4.2802483350        3.3378357308
 H       -16.1541613001        2.5914742046        3.1189205002
 H       -13.2401024530        4.5373145942        9.4614524303
 H       -11.7647650720        3.6154526791       10.1442137147
 H       -13.1632450231        2.7910738402        9.5252177508
 H       -11.2182401434        5.6324756585        8.7869058232
 H       -11.2245426953        5.5437344700        7.1567215794
 H        -9.9648663365        4.7696675604        8.0628694000
 Na       -8.5349127460        4.2363625414       -2.0990301608
