117

 C       -11.8980949556        0.9769976343        7.6963453668
 C       -11.1737215551        2.2841948310        8.0736038551
 O        -9.9875119250        2.3549170059        8.1193921274
 C       -12.0408972515        3.5035237821        8.1352579402
 C       -13.1195726790        3.5461986753        7.0270541932
 O       -14.3212124933        3.7162381527        7.1994671099
 C       -12.5222645194        3.4592639605        5.5290380724
 C       -13.5506838587        3.7074399689        4.4498571258
 C       -13.2628300780        3.3181803553        3.0228605208
 O       -12.1937442358        3.0701062726        2.4797198183
 C       -14.5110250029        3.2559795879        1.9620665777
 C       -14.2016148661        4.5284447499        1.0094199458
 O       -14.7932189704        5.5842890138        1.1621457876
 C       -13.1129918606        4.4203816118       -0.0649943907
 C       -12.6217199747        5.7836427872       -0.6274312953
 C       -11.2302322450        5.7437821201       -1.3172835056
 O       -10.5191487616        4.8007195106       -1.1708047430
 C       -10.7857882329        6.9928400310       -2.2222550045
 C       -10.3392343600        6.3061422821       -3.5299452717
 O       -10.0516879528        5.1295905778       -3.6249346384
 C       -10.0241142761        7.3558332987       -4.6833134506
 C        -8.5095293296        7.0298067049       -5.1268095775
 C        -8.4739324096        5.8254520568       -6.1021209793
 O        -9.4995990708        5.5384860495       -6.6856947944
 C        -7.2658303525        4.8893346285       -6.2337325842
 C        -7.3634092674        4.1211565223       -4.8108937472
 O        -7.0392827921        4.6666537838       -3.7759140096
 C        -7.5027241783        2.6062208880       -4.9450822519
 C        -7.1851607454        1.8320775008       -3.6854939051
 C        -8.4620257847        1.4906013893       -2.9062255789
 O        -9.4204117112        2.2150758547       -2.8633748868
 C        -8.6437859696       -0.0242694700       -2.3524529424
 C        -7.3630244485       -0.4251885548       -1.5121613936
 O        -6.2571067246       -0.6597458182       -2.0625764266
 C        -7.5154611371       -0.2681465207        0.0185304847
 C        -6.5318835797        0.7779704692        0.6522605005
 C        -6.6610270141        2.1840315685       -0.0008776984
 O        -7.6753321796        2.3245659466       -0.6900151207
 C        -5.4716869566        3.1426728342        0.0920318772
 C        -5.8712111319        4.6674568340       -0.0632836420
 O        -7.0033774063        5.0236293650       -0.4120672402
 C        -4.7996810705        5.6775217549        0.0010376131
 C        -4.6589258633        2.8977603173        1.5265425252
 C        -4.4684734650        2.6554559432       -1.0389370135
 C        -9.9446122584       -0.1994875156       -1.6037806113
 C        -8.7374743332       -0.9480944637       -3.5462535458
 C        -7.4530847668        4.0036186101       -7.5306287598
 C        -5.8601553644        5.6894541341       -6.3308148359
 C       -11.9353700525        7.9823719414       -2.4123293684
 C        -9.6989019973        7.7134042192       -1.4220676608
 C       -14.3069175965        1.9020915939        1.1678992569
 C       -15.9246809616        3.3671565108        2.5652266446
 C       -12.7886967391        3.4680458146        9.5543137146
 C       -11.0850985282        4.7121052129        8.0060309850
 H       -11.9886542046        0.8401466838        6.5918079434
 H       -12.8584061020        0.8928869485        8.0591941049
 H       -11.3206464842        0.0736279829        7.8870136808
 H       -12.0021344215        2.5179117121        5.4165218205
 H       -11.6826830761        4.1460519019        5.6039339062
 H       -13.6805617860        4.7922428522        4.3095819617
 H       -14.4177020984        3.2640306945        4.7785296915
 H       -13.5026610593        3.7845911259       -0.8780327058
 H       -12.2445993728        3.9647182601        0.4084608481
 H       -12.4979736524        6.3981060235        0.2982200701
 H       -13.3350247481        6.2936054916       -1.2938181618
 H        -9.9630824935        8.3719369215       -4.1609936223
 H       -10.6100967102        7.2214672660       -5.5625186777
 H        -7.8535812851        6.8410911179       -4.2684284204
 H        -8.2209486971        7.8669142546       -5.7753277597
 H        -6.8792027806        2.2269097108       -5.7882213361
 H        -8.5334079221        2.3561686122       -5.1001837016
 H        -6.5049707895        2.3452958585       -3.0191699843
 H        -6.6583324603        0.8943986978       -3.9081100644
 H        -7.4693906474       -1.2121555420        0.6751577091
 H        -8.5440934428        0.1168409149        0.1836340105
 H        -5.4590604174        0.4356456193        0.5899002645
 H        -6.7746379555        0.7992479074        1.7078972657
 H        -4.6344688756        5.7469120468        1.0539500247
 H        -5.2160715963        6.5949945632       -0.3814140592
 H        -3.9423390893        5.3101077191       -0.6065742592
 H        -3.9853385759        3.7205053634        1.7091555734
 H        -4.0406717120        2.0383364492        1.4330244821
 H        -5.3136389604        2.8732647685        2.3429873785
 H        -3.5190550177        3.2611683877       -0.9203993353
 H        -4.8789484385        2.7122867534       -2.0185414623
 H        -4.2826170262        1.5812308666       -0.7930233130
 H       -10.6861036705       -0.1910220130       -2.4106404299
 H       -10.2723889338        0.6576197648       -0.9939083093
 H        -9.8979031691       -1.1174955000       -1.0557611010
 H        -9.0704636068       -1.8985978017       -3.2221521058
 H        -7.7987408139       -1.0700605382       -4.0655659837
 H        -9.4674894872       -0.4775029606       -4.2708100509
 H        -8.3554066257        3.4429891349       -7.4371686216
 H        -6.6365460495        3.3487519269       -7.6947306488
 H        -7.5557297635        4.6055951555       -8.4342027938
 H        -5.4083744116        5.8223723993       -5.3449631066
 H        -6.0082463854        6.6725226498       -6.8557989670
 H        -5.2223287188        5.1439171072       -6.9562428795
 H       -11.7417350005        8.8379434275       -3.0146789678
 H       -12.2520434440        8.3274835211       -1.4559061233
 H       -12.8155169856        7.4136632981       -2.7651366344
 H        -9.3898368621        8.6584553296       -1.9163552910
 H        -8.6818827712        7.2310985337       -1.3195039710
 H       -10.0801435526        7.8740928011       -0.4049583322
 H       -13.4915195419        2.1077370485        0.4548701286
 H       -15.1025082286        1.5504324360        0.5964708716
 H       -13.9398160264        1.2248104042        1.9074185145
 H       -16.6579253395        3.1021108065        1.8788124223
 H       -16.0384028715        4.3786730581        2.8507236427
 H       -16.0897516008        2.8011969347        3.4713884928
 H       -13.4272153561        4.3613531092        9.4505302707
 H       -12.0062755395        3.5304748349       10.3065581956
 H       -13.3818178867        2.5610443743        9.7670178363
 H       -11.5239082713        5.7079224319        7.8733547182
 H       -10.4301283495        4.6312980879        7.1322579041
 H       -10.4662238857        4.8326248331        8.9440317613
 Na       -8.4645707985        4.2382271807       -1.9444226166
