117

 C       -12.0013101434        5.7918793243        0.7712564880
 C       -10.9479282588        5.1580485505        1.7062144261
 O       -10.1050122488        4.4701600050        1.2791557572
 C       -10.9395409782        5.6651893421        3.2267705391
 C       -11.8346592586        4.4640585384        3.8297899819
 O       -11.4343714746        3.3801021974        3.4394839866
 C       -13.1899955932        4.4907619603        4.5888723227
 C       -14.1122463391        3.2863652508        4.1775307070
 C       -14.4783462138        3.4758926921        2.7141071976
 O       -14.5890833730        4.5969732266        2.1638182488
 C       -15.0154802621        2.2536976807        1.8683037889
 C       -13.9806664823        0.9210539054        1.9807460491
 O       -12.8596494904        1.1119200451        2.5106036965
 C       -14.4723481005       -0.4297156578        1.6101077469
 C       -13.1672699593       -1.3517164907        1.6742938380
 C       -12.1165233075       -1.0772048643        0.5911692505
 O       -11.5096528144       -0.0648640999        0.6516787333
 C       -11.6852143059       -2.0317014241       -0.5735529379
 C       -10.1930043423       -2.2721345565       -0.0503304548
 O        -9.9653756840       -3.3741075144        0.4555626276
 C        -9.0626282000       -1.1316728446       -0.1946824588
 C        -8.0939440620       -1.1017306896        1.1005877345
 C        -8.2402013835        0.0023161496        2.0667946219
 O        -9.0950665186       -0.0005401313        2.9809148548
 C        -7.0806192835        1.0510027499        2.2915104832
 C        -7.5372563204        2.1693459236        1.4330763890
 O        -8.7389404346        2.0032225764        1.0686247029
 C        -6.5343838968        3.3307999833        0.9773034443
 C        -7.1413436963        3.9029638483       -0.4102428434
 C        -6.2151424578        4.6251830846       -1.3736176844
 O        -5.3922152584        5.4362567450       -0.9937105367
 C        -6.4807728359        4.5322920552       -2.8343876631
 C        -7.6740095351        5.7211694060       -2.9318534973
 O        -8.5199026991        5.6744938441       -2.0564785008
 C        -8.0130098010        6.4502023412       -4.2679824029
 C        -7.2885480263        7.8694335471       -4.4916666951
 C        -8.3765173161        8.6705922868       -5.2713693483
 O        -9.5520931709        8.5161919820       -5.2240621997
 C        -7.7411252777        9.8729210066       -6.0931565382
 C        -6.7807282485        9.3566615994       -7.2757839279
 O        -6.3660150679        8.2137456705       -7.2825242671
 C        -6.1020134640       10.4678197387       -8.1387079376
 C        -8.7773946921       10.7567170599       -6.6589824785
 C        -6.5553055664       10.5438154795       -5.2003310669
 C        -5.4224566673        5.2523314535       -3.7190310494
 C        -6.9594780573        3.1443659167       -3.4789031901
 C        -6.9747470217        1.5072860989        3.8578852428
 C        -5.6779531265        0.7150621590        1.8227450164
 C       -12.6068476221       -3.2902598676       -0.6839938881
 C       -11.7323543704       -1.3067614574       -1.9575717595
 C       -16.5140014077        1.9156524236        2.2914165163
 C       -14.9691861975        2.6630413096        0.4144872333
 C        -9.4663953254        5.2673915990        3.9337207592
 C       -11.4255959550        7.0902423473        3.3469418124
 H       -12.4627239989        4.9707209062        0.1911634082
 H       -11.4310930854        6.4659336172        0.0028662006
 H       -12.6885328604        6.4463392765        1.2930155656
 H       -13.6833008129        5.4231459416        4.3426205121
 H       -12.8270575186        4.3699013875        5.5745811351
 H       -14.9681071112        3.3561501729        4.8023108448
 H       -13.6467592908        2.3410586238        4.2912398405
 H       -14.8965240185       -0.3177130383        0.5860980495
 H       -15.2623027889       -0.7214366211        2.3112965145
 H       -13.5723438966       -2.3388274935        1.6995240185
 H       -12.7109340753       -1.2254935635        2.6641327840
 H        -9.3416596458       -0.1150826651       -0.3457343836
 H        -8.4669569112       -1.5584124235       -1.0295603369
 H        -7.1207258354       -1.2178513287        0.5373268112
 H        -8.3195664722       -2.1023442580        1.4552312586
 H        -5.4253780180        3.1571148205        0.7708187600
 H        -6.4191669250        3.9863337571        1.7888293769
 H        -7.9081594856        4.6212627792       -0.1240451477
 H        -7.7398810101        3.0487040524       -0.7355802647
 H        -9.0729908991        6.4460055185       -4.4200032187
 H        -7.6203354367        5.9183244180       -5.0899700172
 H        -6.4497664699        7.6997194315       -5.1990768638
 H        -6.9059160603        8.5080498497       -3.6981744996
 H        -6.4651921763       11.2977772233       -7.6023419766
 H        -6.4923896811       10.6811749668       -9.2048868510
 H        -5.0366676406       10.2529644469       -8.2472760940
 H        -8.8844582074       11.8783216550       -6.4243617714
 H        -9.8135261531       10.3408868291       -6.3892801119
 H        -8.7546140754       10.7560101995       -7.8189924392
 H        -5.7024165278        9.8503164032       -5.3417038688
 H        -6.8345549156       10.5616290596       -4.2096697599
 H        -6.5847792276       11.5166931347       -5.6814673329
 H        -5.6537985867        4.9590978523       -4.6708279579
 H        -4.3441820592        4.9746930540       -3.6252926292
 H        -5.5389395215        6.3337957455       -3.5104925887
 H        -6.2965033557        2.2726972234       -3.2045943251
 H        -6.8515569143        3.1810861554       -4.5795653785
 H        -7.9511100988        3.0797714828       -3.1872968370
 H        -6.0451371059        2.0855183267        4.0975884762
 H        -6.9530119733        0.5034506980        4.3543550490
 H        -7.7972269278        2.1944411789        4.3195055533
 H        -4.9985360876        1.3553939744        2.3236524262
 H        -5.4671684777        0.9505787938        0.7566942808
 H        -5.4295838192       -0.3506538754        1.9290171834
 H       -13.6240437062       -2.9626239152       -0.8158918417
 H       -12.5666689657       -3.9119866549        0.1423731921
 H       -12.3690949690       -3.8431262258       -1.5374128543
 H       -12.7079866481       -1.0695796958       -2.2631098595
 H       -11.4401256110       -1.9700523455       -2.7697162699
 H       -11.0508839939       -0.4952294390       -2.1232607444
 H       -17.1881228103        2.7045052566        2.1384525481
 H       -16.6598026525        1.6237789657        3.3189041251
 H       -16.9509079862        1.1292218677        1.7737864543
 H       -15.3610726308        3.6733165266        0.2764468764
 H       -15.5147002339        2.0294263230       -0.2667331414
 H       -13.9001607165        2.4351888156        0.0394867476
 H        -9.2079909822        6.0018514628        4.6218321940
 H        -8.7904602551        5.0399078149        3.0859201788
 H        -9.5899240170        4.3146819551        4.4940437585
 H       -10.9352981177        7.4699559274        4.2005479652
 H       -12.4771333273        7.1159329599        3.4299134765
 H       -11.1085634327        7.7720667775        2.5682156601
 Na      -10.8215586901        2.1521333744        1.6903066576
