117

 C       -12.1359314899        1.0825775353        8.2715091759
 C       -11.2093434567        2.3170737908        7.9927504194
 O       -10.0380853549        2.1474967335        7.9552989439
 C       -11.8181596538        3.8237586408        8.0309540565
 C       -12.9946883391        3.8757874061        6.9560079595
 O       -14.1195172523        3.4336877368        7.2191169402
 C       -12.5910265309        4.1551447301        5.5023187092
 C       -13.8009536398        4.0217767345        4.5454337516
 C       -13.4937681481        3.2729113080        3.1652405663
 O       -12.4437287293        2.6827381839        2.9264754221
 C       -14.6384460022        3.4168568569        2.0587490452
 C       -14.1240004338        4.6763444651        1.0827626167
 O       -14.6200528539        5.7652873228        1.2164991988
 C       -12.8314716387        4.5594195571        0.2416654539
 C       -12.6957468005        5.5534311965       -0.9286280018
 C       -11.2517628618        5.6010733252       -1.4105271139
 O       -10.5503480389        4.6456180243       -1.1520399778
 C       -10.7853131925        6.8774765307       -2.2651469980
 C       -10.0407818747        6.3836407663       -3.5433725144
 O        -9.7310084164        5.2042515308       -3.6703805574
 C        -9.9493662115        7.2134847932       -4.8370991490
 C        -8.4854900390        6.9732988046       -5.4055266934
 C        -8.3569155112        5.6370683332       -6.2274433820
 O        -9.3111074086        5.2858770963       -6.9206350751
 C        -7.1410360637        4.7755343970       -6.2753572103
 C        -7.2267168346        3.8932953986       -4.9984731428
 O        -7.0070498675        4.3806809072       -3.8948182232
 C        -7.7136431166        2.4671129672       -5.1335514852
 C        -7.3457746553        1.4720093828       -3.9970210433
 C        -8.5861731597        1.1290724503       -3.1396385571
 O        -9.4540806024        1.9483797156       -2.9122298360
 C        -8.7385837790       -0.2312315316       -2.4903443137
 C        -7.7085736236       -0.2437684742       -1.3141494135
 O        -6.5192121337       -0.3421683641       -1.6269145809
 C        -8.1437132111        0.1570165690        0.1189903200
 C        -6.9381471442        0.9020694621        0.8340853029
 C        -6.6995213778        2.2434194895        0.1353842772
 O        -7.5619681831        2.4799156365       -0.7001752145
 C        -5.3607678017        3.1813572422        0.2005476378
 C        -5.6717404593        4.6466225289       -0.0398986661
 O        -6.7142123832        5.0700149000       -0.5374837791
 C        -4.6939622367        5.7727950678        0.4008127240
 C        -4.6181034113        2.9730761901        1.5791498451
 C        -4.5046625919        2.6303308940       -1.0218067477
 C       -10.2085268365       -0.4231990315       -1.9014029508
 C        -8.5063994887       -1.3538430599       -3.4810764096
 C        -7.1830052228        3.9461686822       -7.6208419571
 C        -5.8388175721        5.6320650534       -6.1162139179
 C       -12.0112131046        7.7609204130       -2.5985370707
 C        -9.8122006453        7.6357106039       -1.4024317639
 C       -14.6747847221        2.0493380143        1.3447722981
 C       -16.0220444057        3.8275396149        2.5837429915
 C       -12.3661030485        4.2210419036        9.5032345594
 C       -10.6696626443        4.8432838505        7.8525214065
 H       -11.7414047845        0.1184783742        8.0962107860
 H       -13.0433483739        1.0956016698        7.6238363699
 H       -12.6194792895        1.0995179531        9.2376944245
 H       -11.8115689875        3.4631443304        5.1744057346
 H       -12.2554631917        5.1879563794        5.6449257325
 H       -14.0871149016        5.0008312920        4.3156702865
 H       -14.6561066010        3.5377488525        5.0035750390
 H       -12.8349283638        3.4931897242       -0.0658886239
 H       -11.9151415746        4.6099390726        0.8913762890
 H       -13.0555644133        6.5356288114       -0.6916778991
 H       -13.2670182483        5.2089705812       -1.7964365065
 H       -10.2219735695        8.2307016753       -4.7756183721
 H       -10.5934204301        6.6131929042       -5.5724558198
 H        -7.9447459252        6.7806847872       -4.4612411290
 H        -8.1462797290        7.8810779425       -5.9825583259
 H        -7.2722784225        2.0010452028       -6.0032034434
 H        -8.8227441215        2.5598000094       -5.1769010621
 H        -6.4812714510        1.7622287251       -3.4062823244
 H        -6.9981497617        0.5954998139       -4.4674687179
 H        -8.3310922143       -0.7693743837        0.6961124468
 H        -9.0903692047        0.6611215061        0.1526910343
 H        -5.9918534625        0.3291329989        0.8482272487
 H        -7.0330072676        1.1213118505        1.9339421469
 H        -3.7882421182        5.4229127574        0.9044376935
 H        -5.2620254008        6.2798818400        1.0784261271
 H        -4.6427808017        6.4285277026       -0.4021301988
 H        -3.8649780859        3.6882467407        1.7489820186
 H        -4.1310061175        2.0216559164        1.4439396314
 H        -5.3226252349        2.8097844892        2.3881694462
 H        -3.6602909992        3.2781603549       -1.1932198906
 H        -5.1084149433        2.7999600014       -1.9495369459
 H        -4.1953952335        1.5805575826       -0.8108742492
 H       -10.9280792574       -0.8085834996       -2.6382045337
 H       -10.4661872871        0.5649215265       -1.5670077447
 H       -10.2450489124       -1.1119126676       -1.0425347747
 H        -8.2357560718       -2.2973825247       -3.0404547584
 H        -7.7431140889       -1.0448253814       -4.1930648986
 H        -9.4233809054       -1.6771695333       -3.9939003301
 H        -8.0149827097        3.2790961042       -7.6983856768
 H        -6.2834478825        3.3399861773       -7.6498190213
 H        -7.1538126564        4.6308797922       -8.4402699312
 H        -5.6498587347        6.0284843199       -5.1317510637
 H        -5.8789041324        6.3792457582       -6.8777560752
 H        -4.9831508142        4.9509059372       -6.4563046988
 H       -11.8178688268        8.6519403560       -3.2382427558
 H       -12.5858423494        8.1371833797       -1.7461766069
 H       -12.6896544802        7.2146764626       -3.1419246205
 H        -9.4850518187        8.6418102480       -1.7719585970
 H        -8.8622562146        7.1553862693       -1.2919121002
 H       -10.2084809060        7.9014625690       -0.3923882613
 H       -13.8018641491        1.8708118028        0.8104702316
 H       -15.5790420372        2.1207238565        0.6656729618
 H       -14.8368930539        1.2167838302        2.0087685016
 H       -16.7904477596        3.6289712719        1.8404120787
 H       -16.1196658947        4.8559253402        2.8053794954
 H       -16.2567109380        3.3086893926        3.4494681539
 H       -12.6736588339        5.2552376810        9.4257938890
 H       -11.4784646344        4.1738233148       10.2148818902
 H       -13.2275530254        3.6011651945        9.8409337250
 H        -9.6442034324        4.4502897734        8.0157708426
 H       -10.6761954929        5.6792773299        8.6043126657
 H       -10.6598278175        5.3865186823        6.9047311077
 Na       -8.4052834531        4.0840634339       -2.0637422521
