117

 C       -11.8889461979        1.9282749239        9.2691941080
 C       -11.3164900056        2.6786213463        8.0665193485
 O       -10.8699436727        2.1389481105        7.0762226023
 C       -11.3938594419        4.3114070465        8.0175428633
 C       -12.6626855861        4.3494421733        6.9879352105
 O       -13.7664723306        4.4931197097        7.4755305432
 C       -12.4346885659        4.0482709453        5.5295406940
 C       -13.7368850553        4.1267649394        4.6366300201
 C       -13.3835536297        3.7525217228        3.0936677066
 O       -12.3127250219        3.3159008818        2.7429572026
 C       -14.6037601256        4.0155944577        2.0306765051
 C       -14.1557720196        5.2135054587        1.0076764712
 O       -14.6480715855        6.3209835670        1.0426184995
 C       -12.9572363404        4.7854855997        0.1680049875
 C       -12.7101856668        5.6437386920       -1.1469625173
 C       -11.2387590125        5.5854947248       -1.7136760875
 O       -10.4886129252        4.7361127647       -1.4074924095
 C       -10.7619511928        6.7560569344       -2.7545024728
 C        -9.7649975706        6.2705792261       -3.8554848356
 O        -8.8587230503        5.5375109836       -3.6218326273
 C        -9.8053928987        7.0775464597       -5.2351959957
 C        -8.5680714948        6.6280225428       -6.0927066369
 C        -8.5056814102        5.1262308220       -6.5438821357
 O        -9.4318203939        4.6496083656       -7.1655441409
 C        -7.2195276489        4.3656788653       -6.1907895150
 C        -7.5589177815        3.4818936546       -4.9633842200
 O        -6.9709956942        3.5735569463       -3.9030965571
 C        -8.5203409708        2.3042919278       -5.1495242597
 C        -8.1418596569        1.0027546978       -4.4377457917
 C        -8.7310027552        0.8275040941       -3.1121037736
 O        -9.2709010518        1.7505448689       -2.5346631791
 C        -8.7738203956       -0.5513645382       -2.4245386344
 C        -7.4209622026       -0.3549097871       -1.4984809031
 O        -6.3762303904       -0.1810167031       -2.0684307668
 C        -7.6925089359       -0.3562007672        0.1058409881
 C        -6.7850389533        0.5920056479        0.9880695444
 C        -6.9886045114        2.0597125375        0.5673716279
 O        -8.0682027470        2.4959204698        0.2603084833
 C        -5.6898914137        3.0345987698        0.6863103408
 C        -5.9767583052        4.4982498990        0.3281962020
 O        -6.6627101331        4.7611519405       -0.6296336799
 C        -5.3659779098        5.6998448729        1.1607323967
 C        -5.1280724703        2.8730146110        2.0635776834
 C        -4.7060510806        2.3863645128       -0.2885162832
 C       -10.0635635175       -0.6947535351       -1.5900371895
 C        -8.4593747100       -1.8298570016       -3.2598096265
 C        -6.8358894504        3.5619465561       -7.4833106485
 C        -5.9909363693        5.2168573946       -5.8941685146
 C       -11.9207704492        7.4947562025       -3.4465849383
 C        -9.9422408998        7.7575990258       -1.8675190064
 C       -14.7962524429        2.7495393876        1.2686320076
 C       -15.9909898520        4.4248120136        2.6397345450
 C       -11.6771398783        4.9751686703        9.3029598336
 C       -10.0011520184        4.7252970950        7.4012107657
 H       -11.5215277250        2.2611273475       10.2019094149
 H       -11.5891357207        0.8332232401        9.2000814530
 H       -12.9789361677        1.9223949637        9.3195173244
 H       -11.9196119142        3.0576352867        5.4538957299
 H       -11.6748253050        4.7122692244        5.1246981285
 H       -14.3265607293        5.0932880603        4.6179322207
 H       -14.4027881052        3.3866542132        4.9220169550
 H       -13.1577198779        3.7562752566       -0.1513827061
 H       -12.0067733231        4.8600650117        0.6721707336
 H       -12.9197194351        6.7098604205       -0.8705072054
 H       -13.3346740725        5.4386916417       -2.0011153031
 H        -9.8418344196        8.2218981871       -5.0973411106
 H       -10.7370132303        7.0296479653       -5.7380614213
 H        -7.7527482533        6.7076037234       -5.3842196585
 H        -8.2419411422        7.2825136796       -6.8894687758
 H        -8.7274305854        2.1686486468       -6.2485129919
 H        -9.4890993741        2.6075936686       -4.7900810889
 H        -7.0472849446        1.0713635818       -4.2643291318
 H        -8.3754457871        0.1083358761       -5.0527702351
 H        -7.5585904240       -1.4146983878        0.3817987869
 H        -8.7542315947        0.0324754311        0.2620108010
 H        -5.7260010502        0.3782500857        0.8110458758
 H        -7.0669012653        0.5181657956        2.0227680014
 H        -4.5731570743        6.2988524159        0.5121675436
 H        -4.9771358360        5.4164582605        2.1251793123
 H        -6.2297968353        6.3090556958        1.4377295301
 H        -4.1744569022        3.3701218159        2.3123073828
 H        -4.9434244138        1.8074841062        2.3097344020
 H        -5.8253495494        3.1728350517        2.8856360584
 H        -3.9502627554        3.1362737182       -0.5587395269
 H        -5.1839438398        2.1079734818       -1.2452216573
 H        -4.2632169299        1.4887244661        0.0563778150
 H       -10.8415210329       -1.0290270391       -2.2720624894
 H       -10.4118605685        0.2383741096       -1.1378248125
 H        -9.9706549024       -1.5091751414       -0.8786247714
 H        -8.2417326511       -2.7046382334       -2.6159147303
 H        -7.7573722714       -1.7699334077       -4.0811757728
 H        -9.3590499722       -2.1785169797       -3.6875807376
 H        -7.6686108590        2.9016487680       -7.8213761467
 H        -5.9763962440        2.8826361152       -7.3364173822
 H        -6.4769757290        4.2552445986       -8.2717728367
 H        -6.1605080344        5.5998713823       -4.8830027031
 H        -5.7766568998        6.0253717727       -6.6091358005
 H        -5.0840231566        4.6640537777       -5.8551949177
 H       -11.5840489158        8.4911058253       -3.6882911571
 H       -12.7771198937        7.6437570281       -2.7493162811
 H       -12.3571333550        6.9499866615       -4.3118549864
 H        -9.4918779625        8.5712063906       -2.3611131419
 H        -9.0887674781        7.2984228259       -1.3727291293
 H       -10.6167907973        8.1316313934       -1.1183990717
 H       -13.8553068411        2.1642419268        1.1447242816
 H       -15.1017989843        2.8936081186        0.2446919546
 H       -15.4917836298        2.1365745756        1.8790501658
 H       -16.8074146710        4.3170605943        1.8966135770
 H       -15.9181030231        5.5142000146        2.9368959834
 H       -16.1250559847        3.9007292228        3.6053534894
 H       -11.9235689723        6.0497938535        9.1428976924
 H       -10.9190312045        4.8002808100       10.0122549071
 H       -12.5319904325        4.5000059839        9.7587673314
 H       -10.1574438887        5.6334851500        6.8445209492
 H        -9.5674771253        4.0306982944        6.6935192758
 H        -9.3523578995        4.9683181005        8.2299206342
 Na       -8.2872650470        3.9592716429       -1.8134922324
