117

 C       -11.8005018001        2.0631833633        9.2655596395
 C       -11.2929355440        2.7144721450        8.0434640506
 O       -10.8036662242        2.1301752927        7.0772532729
 C       -11.4447396031        4.2956415996        8.0152654822
 C       -12.6606216541        4.4100207378        6.9394694326
 O       -13.7911862983        4.6649761543        7.4030077940
 C       -12.3781407867        3.9778044964        5.4935508653
 C       -13.6484955789        4.0567648910        4.5956958688
 C       -13.4182823877        3.8617575611        3.1005188877
 O       -12.3492392167        3.4043432247        2.7295999813
 C       -14.5552340992        4.1179055061        1.9987454220
 C       -14.1420551243        5.2814676457        0.9932287863
 O       -14.6845513318        6.3866501703        0.9877143006
 C       -13.0061755581        4.8456149548        0.0797267388
 C       -12.7489257864        5.8029150512       -1.1624260575
 C       -11.3023015825        5.6280929707       -1.7911582805
 O       -10.5699594382        4.7094998935       -1.3859272556
 C       -10.8254400824        6.7660861633       -2.7577300353
 C        -9.7407176443        6.3249208491       -3.8727559088
 O        -8.7892314041        5.6389141376       -3.6379369053
 C        -9.6978072221        6.9576449740       -5.2352697451
 C        -8.5262922426        6.6170894489       -6.0701843464
 C        -8.4827811965        5.0769185252       -6.5059031066
 O        -9.3862404576        4.6140775031       -7.1655504691
 C        -7.1672497805        4.3008422089       -6.1865570957
 C        -7.5207446874        3.4086924529       -5.0447485294
 O        -7.0819325307        3.6952909339       -3.9151361968
 C        -8.5778610198        2.2634798051       -5.2379401089
 C        -8.1674794135        0.9725941303       -4.5840632424
 C        -8.7846797373        0.8164442406       -3.1563821416
 O        -9.2390574395        1.7456600690       -2.4909687265
 C        -8.7359531022       -0.5986073188       -2.3344733371
 C        -7.4642971046       -0.3273787474       -1.3983883325
 O        -6.3705505800       -0.2725087492       -1.9621657262
 C        -7.6571933731       -0.3225546424        0.0836146773
 C        -6.7596230428        0.6142819181        0.9808302515
 C        -7.0329125651        2.0671039695        0.6752144396
 O        -8.1287553960        2.4473667857        0.2607767845
 C        -5.7224007838        2.9436741722        0.7916058254
 C        -6.0455395153        4.4425142078        0.3928959133
 O        -6.5835027976        4.7747218591       -0.6551819632
 C        -5.4296102860        5.5645459108        1.2385675331
 C        -5.0790933554        2.7891163486        2.1559229438
 C        -4.6776693321        2.5055908076       -0.3840463189
 C        -9.9563666127       -0.7897124730       -1.4990633909
 C        -8.5040925361       -1.7776553251       -3.2227275988
 C        -6.8093981002        3.4182521804       -7.4388550974
 C        -6.0296631681        5.2278149143       -5.8388667148
 C       -12.0067547633        7.5635158248       -3.3896835958
 C        -9.9990274805        7.7211812769       -1.8707156538
 C       -14.7469398062        2.7159030281        1.2027411522
 C       -15.9590111549        4.4061320481        2.6565248084
 C       -11.6191303098        5.0286823184        9.3300627227
 C        -9.9650033925        4.6288631915        7.5579647717
 H       -11.2364752702        2.2481751838       10.1425031707
 H       -11.7068153423        0.9803044229        9.0438742846
 H       -12.8469458110        2.2590653856        9.5066260474
 H       -11.8627618455        3.0139481176        5.5102723544
 H       -11.6091027656        4.6217756600        5.1136743890
 H       -14.1082519414        5.0100467551        4.6281803367
 H       -14.3587973653        3.2876818751        4.9471513620
 H       -13.1508403779        3.8280237168       -0.3640741069
 H       -12.0482068656        4.8827393181        0.6573174234
 H       -12.9750394985        6.8572711236       -0.9381385931
 H       -13.3965574170        5.5262293590       -2.0061167717
 H        -9.8597136488        8.0474498985       -5.2205732249
 H       -10.5574068695        6.7248260281       -5.8589425178
 H        -7.5708301432        6.9219738993       -5.5622044932
 H        -8.5777221288        7.2509587619       -6.9667681242
 H        -8.9280324078        2.1968693831       -6.2511666938
 H        -9.5121662172        2.6029177112       -4.6999204479
 H        -7.1241884095        1.0546730899       -4.4131391679
 H        -8.4157715358        0.0694420141       -5.1408701726
 H        -7.5137563599       -1.3674559881        0.3176428680
 H        -8.7122265377        0.0151202925        0.2812263518
 H        -5.7013011048        0.4699220834        0.7949042164
 H        -7.0602357242        0.4506667316        2.0543041267
 H        -4.6693599787        5.9419027024        0.6204349914
 H        -5.0264903661        5.3157930773        2.2009741229
 H        -6.1818753743        6.2835317875        1.4448251565
 H        -4.1625966154        3.3212961651        2.1741824104
 H        -4.8638024183        1.8202909224        2.5627554205
 H        -5.6767391741        3.2412801095        2.9627810754
 H        -4.2075804117        3.3957205786       -0.7347444532
 H        -5.1432028306        2.0797258552       -1.3084377052
 H        -3.9374679685        1.7934375956       -0.0728903331
 H       -10.7941643291       -1.0042929111       -2.1520624073
 H       -10.1275697679        0.1451735976       -0.9992396960
 H        -9.9415254757       -1.6502849669       -0.8048158779
 H        -8.2373884944       -2.6724334976       -2.6947102601
 H        -7.8151512000       -1.6249584128       -4.0182008764
 H        -9.4357340268       -2.0969742016       -3.6025069614
 H        -7.6380763245        2.7571803288       -7.7583154407
 H        -6.0138247136        2.6909633841       -7.1257615194
 H        -6.3643384276        3.9667549732       -8.2686444472
 H        -6.2807476356        5.7345498112       -4.9294109941
 H        -5.9169762770        5.9100353452       -6.6287066304
 H        -4.9819246706        4.8280097529       -5.6858592106
 H       -11.5011963696        8.3981140838       -3.9090849712
 H       -12.7062325825        8.0390869165       -2.6599755630
 H       -12.5665380495        6.9876075527       -4.0346843971
 H        -9.4324896861        8.4845869435       -2.3920140780
 H        -9.2393365471        7.1706641562       -1.3931195483
 H       -10.6447199363        8.2058476984       -1.1006756475
 H       -13.8721911350        2.3432391846        0.7759929830
 H       -15.3864257135        2.9283358094        0.2877786447
 H       -15.1551690685        1.9538552777        1.8707409240
 H       -16.6904033317        4.4846016027        1.8014237588
 H       -16.0063407769        5.3419602407        3.2437582001
 H       -16.1578523026        3.6188200654        3.3451095029
 H       -11.3744028269        6.0578240909        9.2139534531
 H       -11.0674075888        4.5355223019       10.1098903972
 H       -12.6178933557        4.9147354719        9.6921217136
 H        -9.9918364961        5.6879075581        7.5146502521
 H        -9.5238351053        4.3027743316        6.6189951788
 H        -9.4373154495        4.4149430772        8.4317889915
 Na       -8.3891306663        3.8114675115       -1.9448452550
