117

 C       -12.3853923174        2.6500885039        8.9282089929
 C       -11.3993878877        3.0811704544        7.8650087428
 O       -11.0194808918        2.3061042134        6.9925205639
 C       -11.0241551682        4.5444042905        7.7946836521
 C       -12.1248665318        5.0313122643        6.6797735264
 O       -12.9543163629        5.7941476341        7.1196753321
 C       -11.9623600640        4.5087482586        5.2580486091
 C       -13.2670200366        4.6937905962        4.3694020151
 C       -13.0263673883        4.5120216680        2.8740292503
 O       -11.8738049024        4.3798536334        2.4391867720
 C       -14.2111475727        4.3380476606        1.9579087562
 C       -13.8262917984        5.3130888893        0.6696842107
 O       -14.3683246403        6.3727375117        0.5414220991
 C       -12.7612600883        4.7875153485       -0.3126616316
 C       -12.5509265765        5.8739720686       -1.3674585971
 C       -11.2009373077        5.7408484928       -2.0676884487
 O       -10.5400975428        4.7317018576       -1.8217862344
 C       -10.5693774114        6.9797144480       -2.8433651234
 C        -9.5603750809        6.4488379330       -3.9419433574
 O        -8.8390360298        5.4872048191       -3.6401144395
 C        -9.4058283803        6.9232655276       -5.3376429501
 C        -8.1983120747        6.2973994691       -5.9941574659
 C        -8.3899255491        4.7469541656       -6.0137608559
 O        -9.5553257017        4.3389585864       -6.1479943240
 C        -7.1879292117        3.7790723367       -5.8791295822
 C        -7.5418279808        2.8519026669       -4.6732783316
 O        -7.0487987662        3.0683311244       -3.5899328792
 C        -8.6871489994        1.8156954407       -4.8125245980
 C        -8.2876922243        0.4951914640       -4.1492832423
 C        -9.3103602950        0.1335714754       -2.8979890654
 O       -10.1846200008        0.9345195711       -2.4974564896
 C        -8.8826487450       -1.0505972696       -2.0473291561
 C        -7.7883994058       -0.6736779707       -1.0719922751
 O        -6.6102109861       -0.8527168514       -1.3859056917
 C        -8.0061823550       -0.2912107535        0.4456245867
 C        -7.0507942875        0.8603274198        0.9507442440
 C        -7.1190811837        2.0814009167        0.1523125650
 O        -8.0447987887        2.1331895722       -0.6438527188
 C        -6.0533996717        3.2264953524        0.3718585210
 C        -6.8266953262        4.6320793417        0.8357088182
 O        -7.6089513946        5.1206006186        0.0349602222
 C        -6.3617804100        5.2410679855        2.1842338533
 C        -4.9664054173        2.8764425156        1.3494962177
 C        -5.5267701777        3.3246371449       -1.0899837458
 C       -10.1759941337       -1.5237412136       -1.2901709111
 C        -8.3279907319       -2.2715005979       -2.8486359510
 C        -6.9518727526        3.0217535593       -7.1863298391
 C        -5.8440384504        4.4104339051       -5.5259008767
 C       -11.7936862925        7.7049680938       -3.5415251800
 C        -9.7999723969        7.7829257689       -1.7546295725
 C       -14.1445303195        2.8497756524        1.5267298179
 C       -15.5892915898        4.7231599901        2.4379329562
 C       -11.2406724854        5.3156927885        9.1068273379
 C        -9.6321474159        4.7343108875        7.2823936861
 H       -12.8180266032        1.7080824238        8.7255488825
 H       -13.3018252605        3.3854200348        8.9574171327
 H       -11.8721049610        2.6461626739        9.9025582933
 H       -11.7637312435        3.4587834625        5.2866403183
 H       -11.1636213550        5.1001788911        4.6988504041
 H       -13.7415015227        5.6654072218        4.3995561805
 H       -14.1261318864        4.0245596799        4.7318624329
 H       -13.0281814280        3.8381898121       -0.6726372334
 H       -11.8071384700        4.5522815722        0.1656138437
 H       -12.6648221282        6.8277287810       -0.8829447376
 H       -13.2889468868        5.8434195547       -2.1977533463
 H        -9.2049407622        7.9798474549       -5.3521149734
 H       -10.3200530436        6.5887430802       -5.9312804075
 H        -7.2458668122        6.6439713502       -5.6041946819
 H        -8.1728596552        6.6247822670       -7.0592534689
 H        -8.9789676845        1.6366767731       -5.8442897871
 H        -9.4792308395        2.2933355781       -4.2463075322
 H        -7.2292251818        0.5355450212       -3.7504410723
 H        -8.2905346140       -0.3765351033       -4.8273334379
 H        -7.9324699525       -1.2227266264        1.1254676373
 H        -9.0607447298        0.0073072317        0.6211542723
 H        -6.0324647600        0.5105389620        1.0577007057
 H        -7.3190431455        1.0979293860        1.9640328029
 H        -5.2920509310        5.5937796723        2.0286225078
 H        -6.4093229676        4.4641645351        2.9835273992
 H        -6.8763024488        6.1856294416        2.5501619459
 H        -4.3183838572        3.6908864706        1.6426334083
 H        -4.3458618367        2.0985235641        0.9222492499
 H        -5.4247171092        2.4721004811        2.2293504329
 H        -4.5028881916        3.7908333815       -1.0670732046
 H        -6.1932759067        3.8983276589       -1.7785087433
 H        -5.4556237323        2.3713846603       -1.5787502129
 H       -10.9338518354       -1.6616695233       -2.0867803998
 H       -10.5641593849       -0.7356782093       -0.6061509121
 H       -10.1201847386       -2.4668981143       -0.7524828900
 H        -8.0906250810       -3.1092821676       -2.1538228414
 H        -7.4801045889       -1.9204282098       -3.4641889061
 H        -9.1050500184       -2.6715158038       -3.5315829302
 H        -7.8283678168        2.5126781706       -7.4873578614
 H        -6.2165141138        2.3033316501       -6.9956152422
 H        -6.5178281696        3.6650694597       -7.9275807667
 H        -5.9838652009        4.9416577637       -4.5534898904
 H        -5.4693352880        5.1739675615       -6.2776318297
 H        -5.1177929378        3.6597560931       -5.3946444926
 H       -11.3111420423        8.4845682648       -4.0906913519
 H       -12.4091698465        8.2080002544       -2.7905039115
 H       -12.4209065800        7.0197256229       -4.1488838354
 H        -9.2247516323        8.5764470017       -2.2644911761
 H        -9.0676641954        7.1539103993       -1.1548656823
 H       -10.5746841121        8.2082468990       -1.1122490138
 H       -13.2325397059        2.6011572142        0.9505218846
 H       -14.8914829002        2.5448963400        0.8727869099
 H       -14.1060513390        2.2172316270        2.4005967329
 H       -16.3799518269        4.5305243814        1.7776990310
 H       -15.5677230571        5.7942239453        2.5430001395
 H       -15.7221446449        4.2536060128        3.3905476484
 H       -10.8466442114        6.3698517478        9.0820163085
 H       -10.8326025492        4.7948410740        9.9737959866
 H       -12.3423480174        5.4448562224        9.2403405326
 H        -8.9246184254        5.2533421613        7.9537196172
 H        -9.6988626726        5.3130435303        6.3749294683
 H        -9.2478890337        3.7125296034        7.0729438239
 Na       -8.4484818876        3.8643242007       -1.9342312205
