117

 C       -11.8714805114        2.1019891627        9.2790269766
 C       -11.3562959720        2.8022632929        8.0104917116
 O       -11.0712807145        2.0823302720        7.0651112733
 C       -11.2772596118        4.3818272866        7.9039391317
 C       -12.2020208841        4.7516664630        6.7031173437
 O       -13.0246551449        5.6460748093        6.8317276224
 C       -12.1539578141        3.9960925086        5.3354710342
 C       -13.3943098509        4.3188013138        4.4865899716
 C       -13.1204293155        4.2505320134        3.0002378565
 O       -11.9928821090        4.1215490969        2.5244906666
 C       -14.3548508202        4.2739027742        2.0308867069
 C       -14.1181073944        5.2766456806        0.8312104763
 O       -14.8005454701        6.2641533633        0.7205769537
 C       -13.0752358313        4.8972804781       -0.3170944129
 C       -12.4583563316        6.1642271293       -0.9164754506
 C       -11.2744783877        5.8023623748       -1.8836625278
 O       -10.9354898553        4.5932505673       -1.9886466616
 C       -10.6926344152        6.9878576303       -2.7931367679
 C        -9.5980261802        6.4949714778       -3.7929023509
 O        -8.6262242078        5.9112848855       -3.3441523108
 C        -9.7273417073        6.8175487138       -5.2306529384
 C        -8.5087547049        6.3452314211       -6.0763695121
 C        -8.4438192333        4.8480712019       -6.3202969185
 O        -9.4138047682        4.2682425486       -6.7514774736
 C        -7.1352061156        4.0077235818       -5.9550436527
 C        -7.6439096842        3.0494958482       -4.8079694476
 O        -7.0513378034        3.2297067778       -3.7173750728
 C        -8.7803279128        2.0887629084       -4.9693236480
 C        -8.4430962661        0.7309633895       -4.3649169140
 C        -8.9844825216        0.4707844523       -2.9718898248
 O        -9.5243117440        1.3417747440       -2.2917311154
 C        -8.7324991109       -0.9469761108       -2.2233872766
 C        -7.5739596523       -0.4695170241       -1.1161884478
 O        -6.4413202578       -0.3518364988       -1.5115104252
 C        -7.9899751154       -0.2943252426        0.3233955700
 C        -7.0560643509        0.6665115727        1.0362470365
 C        -6.9871689443        2.0385627585        0.2761192877
 O        -7.7366279066        2.2389374007       -0.6653155756
 C        -5.8442366237        2.9848707049        0.5851446353
 C        -6.4043345438        4.4454134332        0.6435081187
 O        -7.0990009609        4.9832189104       -0.1910298885
 C        -5.8034436478        5.3431009134        1.7028553183
 C        -4.9915943895        2.6675060433        1.8006968022
 C        -4.9076195218        2.9220835059       -0.6795137703
 C       -10.0142705850       -1.2979837128       -1.5241551955
 C        -8.2750851863       -2.0992757127       -3.1377352520
 C        -6.7501694940        3.0207066387       -7.1069381574
 C        -5.9271773716        4.8872701252       -5.5945575106
 C       -11.8454405818        7.6946171572       -3.5650070976
 C       -10.1234970250        7.9707392324       -1.8032181260
 C       -14.5418707217        2.8369884040        1.4149235857
 C       -15.7345292322        4.6876149623        2.5905294398
 C       -11.6950922704        5.1363236850        9.1654885396
 C        -9.8280335058        4.9773301610        7.6199510938
 H       -12.1743913639        2.7122389356       10.1112451381
 H       -11.1571906432        1.3218914540        9.5835842378
 H       -12.8109787977        1.5502731329        9.0306419851
 H       -12.0355536285        2.8639560726        5.3849323454
 H       -11.2102489049        4.3878983382        4.9683337479
 H       -13.6774508194        5.4041807184        4.7832090139
 H       -14.1554402269        3.5927625848        4.7363062806
 H       -13.6759327522        4.4223613726       -1.1026880118
 H       -12.3775962505        4.1525592821       -0.0586261926
 H       -12.1082683247        6.7175179561       -0.0149562573
 H       -13.2274443498        6.7465319469       -1.4016058655
 H        -9.6923730835        7.9757451121       -5.3178062708
 H       -10.5922943662        6.3802236161       -5.6679532109
 H        -7.5601175913        6.6616816241       -5.6364149718
 H        -8.7011575206        6.7538518179       -7.0517770362
 H        -9.1389720187        2.0380896926       -6.0013064288
 H        -9.5754713257        2.5586544507       -4.3945213975
 H        -7.3573353763        0.5941289710       -4.2620379824
 H        -8.8068462604       -0.1168418181       -4.9806031467
 H        -8.2808395527       -1.2216958899        0.7442903531
 H        -8.9923116794        0.2351852115        0.2965374253
 H        -6.0386526908        0.2868328720        1.0012100242
 H        -7.3570493624        0.7929755007        2.0669400164
 H        -4.7668574688        5.3095351088        1.7866750402
 H        -6.1386101048        5.0220056990        2.7365802841
 H        -6.1330351396        6.3824016882        1.4765731423
 H        -4.0781868298        3.1766753884        1.8271222800
 H        -4.7191908829        1.6525165688        1.9025682156
 H        -5.4728212589        2.9209472482        2.7375714461
 H        -4.3416096190        3.8270747919       -0.7840407711
 H        -5.6201637950        2.9799801485       -1.5387814922
 H        -4.1121609676        2.2002383014       -0.7466317166
 H       -10.7871817976       -1.6002465054       -2.2293114903
 H       -10.4186455725       -0.4017366316       -1.0603073132
 H        -9.8525152174       -2.0448363114       -0.7122789822
 H        -8.0032989823       -3.0473956078       -2.6242816919
 H        -7.4200892925       -1.8596483599       -3.7932444829
 H        -9.0900555376       -2.1470183286       -3.8268132175
 H        -7.5988041903        2.4110907843       -7.3607433918
 H        -5.9031350782        2.4053387536       -6.8518145389
 H        -6.5882675417        3.5601362681       -8.0059509215
 H        -6.1199078166        5.3126713226       -4.6084184653
 H        -5.7294960804        5.7092793629       -6.2463467822
 H        -5.0041012108        4.2333648273       -5.4656777346
 H       -11.3576824234        8.3003534473       -4.3216698880
 H       -12.3555707644        8.3589212431       -2.8469012677
 H       -12.4563637064        7.0315871408       -4.0497590583
 H        -9.6299941441        8.8028974228       -2.3449727808
 H        -9.4865280131        7.4519860166       -1.1032671487
 H       -10.9195708376        8.4828373276       -1.1559848146
 H       -13.7847410447        2.5589487739        0.7764658262
 H       -15.5546481079        2.7335426098        0.9792010249
 H       -14.5478425041        2.0712387671        2.1749582720
 H       -16.3727989301        4.7928057609        1.7215382827
 H       -15.6505191562        5.6161697119        3.0980719456
 H       -16.1542978031        3.9167671511        3.1318408714
 H       -11.5364658557        6.2241587812        9.1899538126
 H       -11.1384067251        4.7801037878       10.0284948918
 H       -12.7736573638        4.9848217621        9.2471257891
 H        -9.9745254669        5.7352487548        6.8665355243
 H        -9.0476564927        4.2185045227        7.3977951361
 H        -9.4884408206        5.5106259412        8.4938388161
 Na       -8.6125137193        3.7505599065       -2.1748559473
