117

 C       -12.8415950918        3.1478386302        8.4493116679
 C       -11.4504308448        3.2922262493        7.7517881001
 O       -10.7011441815        2.3556502108        7.6318105975
 C       -11.0046998286        4.7530128002        7.3967255476
 C       -12.0101154106        5.3185969075        6.4390790739
 O       -13.1099329602        5.7142902205        6.7823693899
 C       -11.6123793389        5.4402296954        4.9334981685
 C       -12.8649371588        5.6484456759        4.0610785811
 C       -12.7097482812        4.8442880987        2.7581633301
 O       -11.5853381758        4.6649729557        2.2954086066
 C       -13.9349532877        4.5990500473        1.8607459602
 C       -13.6874752687        5.4180733739        0.6038348001
 O       -14.0076462517        6.5800763462        0.6001851300
 C       -12.9948527805        4.7675314530       -0.6034877635
 C       -12.5780981744        5.8134036813       -1.5885161587
 C       -11.1645870231        5.5865168564       -2.0843341212
 O       -10.5015112327        4.5979603792       -1.9320031160
 C       -10.4022597620        6.8585705712       -2.7247687709
 C        -9.3514157005        6.3281934567       -3.7677904456
 O        -8.3116600323        5.8320821797       -3.4024497596
 C        -9.7618229953        6.5377382987       -5.2951385560
 C        -8.7041399321        5.8537853632       -6.2388300285
 C        -8.7230613057        4.3419886604       -6.2772508470
 O        -9.7972147984        3.8095976797       -6.3272130598
 C        -7.3935989444        3.4085580827       -6.2179608414
 C        -7.6432799402        2.6994472144       -4.8067409990
 O        -7.2575481882        3.3309446224       -3.8362064037
 C        -8.6245021494        1.5429174173       -4.7617468909
 C        -8.2373544547        0.6604513168       -3.5642228671
 C        -9.3968293749        0.0554694496       -2.8292092241
 O       -10.5415413268        0.3859177501       -2.9172278769
 C        -9.0663803926       -1.1279625465       -1.7632793304
 C        -7.8562305101       -0.7557286772       -0.9362525324
 O        -6.7541260823       -0.8089304711       -1.3646560822
 C        -8.0229905670       -0.3356636711        0.5730822340
 C        -6.9302372597        0.5601928713        1.1820185394
 C        -6.8801043178        1.8341240980        0.3224739952
 O        -7.6194101509        2.0624414384       -0.6315583284
 C        -5.9309232047        3.0373068802        0.8105992026
 C        -7.0491759596        4.2633401447        1.1412498864
 O        -7.4824835181        4.9980327303        0.2731368683
 C        -7.5077329069        4.5513679322        2.5516539820
 C        -5.0221404757        2.8426023243        2.0348030289
 C        -5.1987881470        3.8202579666       -0.2976282830
 C       -10.3199240665       -1.3679348003       -0.9036883052
 C        -8.8452868220       -2.3129178856       -2.6346921072
 C        -7.4397044923        2.4119614064       -7.4774913243
 C        -6.0309097726        4.2337733293       -6.1505091211
 C       -11.4131870250        7.7549357165       -3.4614054469
 C        -9.6404398989        7.6022022572       -1.6117445620
 C       -14.0412217781        3.0585014690        1.5148159716
 C       -15.3383677509        5.0749425470        2.3470912184
 C       -11.0224842814        5.6500275658        8.6563846435
 C        -9.5417864364        4.5438757940        6.9232026484
 H       -12.7452046632        3.7753224473        9.3277782770
 H       -13.0846900073        2.1602600315        8.7849090152
 H       -13.6399742900        3.5989044429        7.8274896898
 H       -11.2288523263        4.5100487994        4.6002491888
 H       -10.6967876469        6.1082391081        4.8590507074
 H       -12.9931513444        6.7393169359        3.8741472660
 H       -13.7359156536        5.3685403815        4.7260532184
 H       -13.7425522095        4.1331369280       -1.0441523712
 H       -12.1121037581        4.1745527721       -0.2761618241
 H       -12.7957359793        6.8073339191       -1.1737826537
 H       -13.2870240927        5.8164104576       -2.4689529468
 H        -9.9004229536        7.6526682675       -5.4630649945
 H       -10.7661857397        6.0570863744       -5.3400186879
 H        -7.7110737140        6.2586008258       -6.0790695864
 H        -8.8887560984        6.1507748229       -7.2598760084
 H        -8.6172479727        0.9495266630       -5.7051007741
 H        -9.5777186130        2.0769464859       -4.7042339556
 H        -7.5729370386        1.1954208648       -2.8835996698
 H        -7.7230399202       -0.1838407320       -3.9548868629
 H        -7.8474087475       -1.2792764482        1.0504433534
 H        -9.0027664264        0.1687989892        0.7443018983
 H        -5.9613420656        0.0580513701        0.9999865303
 H        -6.9768349663        0.6090859229        2.2705329284
 H        -6.7672112679        5.0310624438        3.0558161625
 H        -7.7270989602        3.6324745889        3.0880370234
 H        -8.4124241416        5.0882083274        2.5764086515
 H        -4.4453357252        3.7202676319        2.3229560145
 H        -4.3700485006        2.0597055479        1.6103404766
 H        -5.6738083076        2.3596762533        2.8241932939
 H        -4.6825724631        4.6383323586        0.2166243203
 H        -5.8620342611        4.2976385594       -1.0385730340
 H        -4.4222962205        3.2254439526       -0.8188899588
 H       -11.1093044566       -1.6856356277       -1.5616859140
 H       -10.7174831093       -0.4715980902       -0.4413907257
 H       -10.2021464969       -2.1164058990       -0.1286324427
 H        -8.6391434217       -3.2607054811       -2.1217693790
 H        -7.9916128791       -2.1596718061       -3.2897983980
 H        -9.7136309402       -2.3643179707       -3.1919222640
 H        -8.4609025288        1.9823222844       -7.5186249247
 H        -6.6388918318        1.6547150685       -7.4972209547
 H        -7.4686696324        3.0110267794       -8.4005098440
 H        -6.1296879350        4.8895166243       -5.3123802849
 H        -5.7344293382        4.7389430653       -7.0487926655
 H        -5.2318902522        3.5390823252       -5.8654691469
 H       -10.8704789191        8.4769841650       -4.0731283477
 H       -12.0453381248        8.3549411765       -2.7423952435
 H       -12.0462191852        7.2580221505       -4.1276909616
 H        -9.5675572093        8.6251519783       -1.9222030844
 H        -8.6997515669        7.1362666566       -1.5067645731
 H       -10.2471155431        7.6172821320       -0.7012568990
 H       -13.1275307803        2.5586902780        1.4306127532
 H       -14.7325455666        2.7653729615        0.7104591368
 H       -14.5750589668        2.5393859359        2.3505945821
 H       -16.1501971018        4.9703244843        1.5913664402
 H       -15.2526207219        6.0665604346        2.8434938283
 H       -15.6902864794        4.4309363947        3.1479330326
 H       -10.1589522903        6.3540001630        8.5959959943
 H       -10.8906516192        5.0416750513        9.5318466125
 H       -11.9759787485        6.1643212710        8.7622183353
 H        -9.5387504756        4.6019372280        5.8381129064
 H        -9.0934411971        3.5892194786        7.1936595134
 H        -8.8991508190        5.3267339980        7.3331827844
 Na       -8.1948160719        4.0972299247       -1.7507181794
