117

 C       -12.6983319303        3.0101806219        8.6184310133
 C       -11.4877372639        3.1844225712        7.8061329544
 O       -10.9337662299        2.2286275727        7.2819025551
 C       -10.9765492359        4.6314375499        7.6005535064
 C       -12.1017015146        5.3263830701        6.6881099928
 O       -13.1562284265        5.6941022650        7.1442105794
 C       -11.7521885271        5.2733724610        5.1597351358
 C       -13.0172580326        5.1583605488        4.3087945023
 C       -12.7771493782        4.6910656557        2.8809736701
 O       -11.6579196763        4.4328720844        2.4380894751
 C       -14.0561837099        4.4065457323        1.8681282240
 C       -13.8216301634        5.2928332085        0.6677875301
 O       -14.2069654028        6.4258127964        0.6288027538
 C       -13.0711952156        4.7050373636       -0.6006233899
 C       -12.6595139365        5.7602501486       -1.7167938431
 C       -11.1606307326        5.7320091621       -2.0525441304
 O       -10.5460436308        4.7496974103       -1.6756359942
 C       -10.5023494638        6.8735362978       -2.8584324063
 C        -9.3995475528        6.3805589619       -3.9230213530
 O        -8.5292455973        5.5986810686       -3.5734410706
 C        -9.4407468726        6.8254978931       -5.4308283697
 C        -8.2886856903        6.1686609817       -6.1463811871
 C        -8.5203766244        4.6691154471       -6.1567889779
 O        -9.6616296821        4.2353961747       -6.2044505007
 C        -7.3182784537        3.6612118496       -5.9898418192
 C        -7.5843051566        2.8074460166       -4.6575818684
 O        -6.9093669645        2.9838446695       -3.6674129878
 C        -8.5293937062        1.5714072351       -4.7911145763
 C        -8.1881961821        0.3774072764       -3.7893719974
 C        -9.3351658930        0.0581031531       -2.7556608155
 O       -10.3030357096        0.7441117177       -2.7394634668
 C        -9.0239155147       -1.2013477485       -1.7849490176
 C        -7.7928136743       -0.7565767823       -0.9941581008
 O        -6.6913051793       -0.6060821016       -1.4702368652
 C        -7.9474051494       -0.3628141247        0.4901122947
 C        -6.9426193670        0.7124187252        0.8445419973
 C        -7.1806306097        2.0142313910        0.2442226635
 O        -8.0882860307        2.2227473725       -0.4746078452
 C        -6.1567886193        3.2183805815        0.4605074531
 C        -7.0432262096        4.4230992649        0.9487101202
 O        -7.7658129947        4.9035142196        0.1341420740
 C        -6.9655880794        4.7864330970        2.4122021490
 C        -5.0444668038        2.8299837382        1.4822136560
 C        -5.4017222680        3.5459182372       -0.8949256821
 C       -10.2930321589       -1.4529197055       -0.9460135482
 C        -8.6084712575       -2.4468980179       -2.6801094835
 C        -7.2464641749        2.7231876426       -7.1922444052
 C        -5.9820588498        4.4239416469       -5.8463356310
 C       -11.5236233729        7.7870844676       -3.5786492560
 C        -9.5924041888        7.6214410292       -1.7899741702
 C       -14.0552330196        2.9296237447        1.5679315214
 C       -15.3674658324        4.8725821304        2.5439026795
 C       -11.0418246194        5.4591227135        8.8934548343
 C        -9.5092522672        4.5863296628        6.9827369459
 H       -12.5614680526        3.0526139914        9.6577816369
 H       -13.0998312111        1.9597602785        8.4204276861
 H       -13.3779667255        3.8704993818        8.4054244517
 H       -11.1758280647        4.3804136141        5.0720093923
 H       -11.1690211769        6.2163205582        4.8676669734
 H       -13.5012737420        6.1539487663        4.3552437630
 H       -13.8481251622        4.5788271947        4.8356927026
 H       -13.6392159421        3.9487555858       -1.0691249469
 H       -12.1761030477        4.1774381287       -0.2618204823
 H       -13.0189996191        6.7576346057       -1.4968758288
 H       -13.2455891828        5.4909909742       -2.6314943629
 H        -9.3243591401        7.9432455370       -5.4034250891
 H       -10.4435098439        6.5106873325       -5.8795161986
 H        -7.3357533965        6.4659958233       -5.7777490981
 H        -8.1714467967        6.5467142567       -7.1387464009
 H        -8.5645647228        1.1853852410       -5.8118678534
 H        -9.5096714779        1.8644248780       -4.4604089549
 H        -7.2485346705        0.4954044907       -3.2034479185
 H        -8.1004327708       -0.5557807482       -4.3325179879
 H        -7.8038174889       -1.2916000209        1.0985320555
 H        -8.9610177868        0.1083936503        0.6375562557
 H        -5.9913240362        0.4425239135        0.3749003973
 H        -6.6836049481        0.7314763406        1.8792949998
 H        -5.9784185383        4.7826864378        2.7409981476
 H        -7.5271043035        3.9497419446        2.9200952049
 H        -7.4495170592        5.7322928156        2.7416319697
 H        -4.4392395633        3.6654198276        1.7347196043
 H        -4.4480317050        2.0832943270        1.0057437450
 H        -5.4539758991        2.4198997455        2.3979008564
 H        -4.8385866605        4.4127597459       -0.6191820986
 H        -6.1010092841        3.9869349517       -1.6493158379
 H        -4.9506138596        2.7415003048       -1.4090502136
 H       -11.0741090446       -1.8723748771       -1.5639737261
 H       -10.6082782144       -0.5421744117       -0.4375831603
 H       -10.1623202175       -2.1992930217       -0.1793884342
 H        -8.6376581537       -3.3540496520       -2.0527701689
 H        -7.5997872543       -2.3963726082       -3.0783311433
 H        -9.3806866683       -2.6283290945       -3.3653143621
 H        -8.2269153453        2.2719726110       -7.4574138285
 H        -6.5064178671        1.9464599911       -6.9910032832
 H        -6.9150847386        3.3711101331       -8.0352512922
 H        -5.8199622156        4.9257181465       -4.8963012256
 H        -5.8560241123        5.0950501544       -6.7046559556
 H        -5.2209489618        3.6856169965       -5.9359928355
 H       -11.0100246860        8.4846067242       -4.1820835487
 H       -12.2994922872        8.2821042745       -2.9892358882
 H       -12.0422625034        7.0958448924       -4.1842841162
 H        -8.9357474166        8.3549561813       -2.2773965473
 H        -8.9116862469        6.8662330283       -1.3819933867
 H       -10.2926475767        8.0923830448       -1.0725618403
 H       -13.1003919656        2.5713330036        1.2051573490
 H       -14.7003531834        2.7578147505        0.7159361692
 H       -14.3922189868        2.2282030885        2.3425493048
 H       -16.1658886171        4.5177552763        1.8788309778
 H       -15.4412303050        5.9665919672        2.6625740640
 H       -15.5176630517        4.4173786107        3.5130719630
 H       -10.5991834155        6.4444982092        8.7225302129
 H       -10.4623952183        4.9415866527        9.5862692954
 H       -11.9936198292        5.4352231924        9.3666007957
 H        -9.1497730078        3.5701527617        6.9975003524
 H        -8.8996012804        5.1991098137        7.5989276656
 H        -9.4280516128        4.9219744215        5.9547830954
 Na       -8.2839805354        4.1687698644       -1.8661767979
