117

 C       -12.8795200427        3.2861965474        8.3889254456
 C       -11.5226060660        3.3323582885        7.7546166762
 O       -10.7813111694        2.3882085993        7.6778469080
 C       -10.9820915578        4.8174494541        7.3663393963
 C       -11.9361898232        5.3733930097        6.3660946005
 O       -13.0685686096        5.6413713126        6.7371739014
 C       -11.6287275099        5.2567596716        4.8958420168
 C       -12.7564284082        5.7245335856        3.9660940687
 C       -12.6652046510        4.9894591638        2.6396064919
 O       -11.6356773739        4.5007470478        2.2013262086
 C       -14.0415173319        4.7050586057        1.7964758335
 C       -13.7030218142        5.5111341686        0.4956964383
 O       -13.9486798718        6.6913795797        0.4888669328
 C       -12.8484460833        4.8296513060       -0.5662007908
 C       -12.5728865588        5.6964903717       -1.8305794286
 C       -11.0471744752        5.6521643844       -2.1266307923
 O       -10.4374828662        4.5834498888       -1.9422568199
 C       -10.3852007066        6.8942694203       -2.7668990240
 C        -9.3308508314        6.4068400983       -3.8584922439
 O        -8.2652334917        5.9556391320       -3.4804595539
 C        -9.7896804358        6.2443766221       -5.4094889570
 C        -8.6500713957        5.7474843283       -6.2433861209
 C        -8.8582069941        4.2183481821       -6.3849811383
 O        -9.9991565838        3.7738999681       -6.5153080159
 C        -7.5346110066        3.3521007121       -6.2451430840
 C        -7.6768802828        2.7456189398       -4.8563734172
 O        -7.1938619539        3.3407953957       -3.9047700405
 C        -8.6502795543        1.5277589744       -4.6030903746
 C        -8.2650462381        0.7074993656       -3.3987576130
 C        -9.4617884393        0.0466684207       -2.7211169325
 O       -10.5677438708        0.3429206671       -3.1364338657
 C        -9.1119969783       -1.1316531293       -1.6284575547
 C        -7.8476164403       -0.7609460546       -0.8351299971
 O        -6.7249166070       -0.9663478902       -1.3393123295
 C        -8.0747674267       -0.2850038068        0.6419535672
 C        -6.9125741608        0.6669187801        1.0866826471
 C        -6.8533229985        2.0272335870        0.3443271175
 O        -7.3750245950        2.1578718588       -0.7417314473
 C        -6.0105391929        3.1006898750        1.0163752136
 C        -7.0542784574        4.2949655086        1.2423788515
 O        -7.6628827779        4.8666455592        0.3724944362
 C        -7.6303821920        4.3915577111        2.6396544224
 C        -5.1910373945        2.5997296786        2.3284669651
 C        -4.9361192703        3.5125371507       -0.0708864129
 C       -10.3360289747       -1.3958534765       -0.7531427155
 C        -8.8419966166       -2.3772900158       -2.5369180669
 C        -7.5308564536        2.3041577013       -7.4040989205
 C        -6.2655623091        4.2073840908       -6.4584435154
 C       -11.3376660857        7.9433064582       -3.2502774797
 C        -9.6045772001        7.4958433625       -1.5039389505
 C       -14.0263004513        3.1583054931        1.5826251238
 C       -15.2264774592        5.1827403619        2.6176440547
 C       -10.9359313888        5.7467466167        8.6885771103
 C        -9.5067312308        4.8740186592        6.7995871754
 H       -12.8391617194        3.8360242863        9.3348651141
 H       -13.1779952785        2.1899253396        8.6127316126
 H       -13.6232864169        3.7380590401        7.7185505282
 H       -11.3520104051        4.1417050771        4.6768776280
 H       -10.6634408451        5.6432753312        4.6094961098
 H       -12.5918215698        6.8192593769        3.8505224505
 H       -13.7323566575        5.5465342013        4.4178130999
 H       -13.2257994492        3.8298437969       -0.8046367319
 H       -11.8978661142        4.7659093896       -0.1003746212
 H       -12.9669996899        6.7144743187       -1.6735453245
 H       -13.1532462210        5.3837984875       -2.6632403552
 H       -10.0617384034        7.2170836604       -5.7030438796
 H       -10.6943816943        5.6439632804       -5.3679754003
 H        -7.6947297439        6.0376709281       -5.7613173018
 H        -8.7046375695        6.3080933683       -7.2198157619
 H        -8.5238640779        0.9213536770       -5.4683606557
 H        -9.7099628020        1.8171341422       -4.6200888619
 H        -7.7784662487        1.4150091269       -2.6942551162
 H        -7.5247657066       -0.1005639893       -3.6933864352
 H        -8.0488445824       -1.2059203401        1.2863355495
 H        -8.9310823111        0.3448832985        0.6712942976
 H        -5.9354437556        0.2172407210        1.1359473496
 H        -7.1458950912        0.8884336298        2.1277859113
 H        -6.9115997342        4.7017830268        3.4666884781
 H        -8.0576260145        3.4359327299        2.9952764239
 H        -8.5539564199        5.0577860857        2.5854667657
 H        -4.7952670743        3.5669173304        2.5548794557
 H        -4.4273836021        1.8745908749        2.1604846725
 H        -5.8614727593        2.3008687564        3.0522532893
 H        -4.7243107816        4.5887328766       -0.0934372243
 H        -5.3203532512        3.3043089749       -1.0695637637
 H        -3.9871638853        3.0525663875        0.1558172691
 H       -11.1464805661       -1.9368913007       -1.2354973141
 H       -10.8217660338       -0.4603142892       -0.4798324409
 H       -10.0553807077       -1.8762793122        0.1648239249
 H        -8.9700889497       -3.2419302803       -1.9325408406
 H        -7.8011062332       -2.3508279316       -2.8394668956
 H        -9.4561123132       -2.3610415817       -3.4864437787
 H        -8.4798175941        1.7750747360       -7.4985520021
 H        -6.7119640281        1.6253725260       -7.1278059609
 H        -7.2865579053        2.7265734640       -8.3923980296
 H        -6.0633847244        4.7841233708       -5.5434624954
 H        -6.4598912457        4.9182595461       -7.2849325379
 H        -5.4414918659        3.6003949453       -6.7297518534
 H       -10.8371531845        8.7796470806       -3.6912336562
 H       -11.9379620684        8.3739146495       -2.5069348594
 H       -11.9772803368        7.5646277684       -4.0936835275
 H        -9.3448954268        8.5218356732       -1.8288745952
 H        -8.7748027699        6.7777869633       -1.1965951974
 H       -10.3174936874        7.6231263440       -0.7002888096
 H       -12.9673800579        2.7882249701        1.4334068139
 H       -14.6145714649        2.8103290708        0.7810142183
 H       -14.3870581778        2.6129855499        2.4160658197
 H       -16.1878918999        4.9903428023        2.1905204337
 H       -15.1515121736        6.2472430716        2.7819253306
 H       -15.2604521185        4.6975847574        3.6158590737
 H       -10.6816590846        6.7364316841        8.4013770533
 H       -10.2410300284        5.3877310679        9.4535847540
 H       -11.9572151381        5.8389296806        9.0589371093
 H        -9.4776005408        4.8812099195        5.7245035941
 H        -8.9900558878        3.9814904342        7.0917075084
 H        -8.9601503451        5.6969363443        7.2206084632
 Na       -8.1327002388        4.1254778707       -1.8582460343
