117

 C       -12.8436637375        2.9780123564        8.6032828719
 C       -11.4838259268        3.1947539255        7.9318591350
 O       -10.9003642806        2.2227009594        7.5120549092
 C       -10.8942984608        4.6772465513        7.5992818009
 C       -11.9326762027        5.3239839470        6.4661889012
 O       -12.9865137568        5.7140612067        6.9235947914
 C       -11.6824972007        5.6000018211        4.9285855819
 C       -13.0057856138        5.4345504257        4.1344917392
 C       -12.7993489032        4.7893743705        2.7708302459
 O       -11.7367340186        4.4988264593        2.2972518927
 C       -14.0858179762        4.4875319554        1.7618095561
 C       -13.8089077639        5.3696059445        0.5026710457
 O       -13.9968059648        6.5894580181        0.5326718184
 C       -13.1380378519        4.7329198938       -0.6914086202
 C       -12.5179555756        5.8150368672       -1.5994716160
 C       -11.1356837284        5.5804122921       -2.1067673842
 O       -10.4671477680        4.6114716276       -1.7418576778
 C       -10.4421527662        6.7985438429       -2.8084035259
 C        -9.3411525386        6.3957664631       -3.8454856529
 O        -8.4095882887        5.6914091058       -3.4961392208
 C        -9.5495739287        6.7252180068       -5.3921765811
 C        -8.5092319055        6.0098722021       -6.2171361555
 C        -8.6236967928        4.4606344376       -6.2198736506
 O        -9.7207695926        3.9363611433       -6.2328497801
 C        -7.3423141727        3.5130432476       -6.1258568562
 C        -7.6771418498        2.7861158123       -4.7507429482
 O        -7.1442722605        3.1177843876       -3.6847773638
 C        -8.5831902472        1.5616876552       -4.7023593936
 C        -8.1673129219        0.5415689908       -3.6350075117
 C        -9.3622903801        0.0334402211       -2.7887880345
 O       -10.3966724693        0.6829799419       -2.8084430233
 C        -9.1217822842       -1.1740490000       -1.7988553779
 C        -7.8665067964       -0.6279458990       -0.9377822640
 O        -6.7656486459       -0.6806243667       -1.5142878200
 C        -7.9381265555       -0.3040149447        0.5183538375
 C        -6.7936021262        0.6575994718        0.8756528267
 C        -7.0169635226        2.0693101578        0.3227869292
 O        -7.8584312790        2.1227527055       -0.6133015476
 C        -6.0385078225        3.1860983321        0.5889501894
 C        -7.0451254264        4.4061526149        1.1201023498
 O        -7.7105413383        5.0823025691        0.3307093008
 C        -7.2549584107        4.5866685455        2.6556706262
 C        -5.0542970200        2.8921672775        1.7355898562
 C        -5.2451781006        3.4784388791       -0.7219232249
 C       -10.4054271988       -1.4427071959       -1.0665639031
 C        -8.6494221939       -2.4859328724       -2.5829399442
 C        -7.3256339568        2.6560085445       -7.3800233924
 C        -6.0077931831        4.2500201785       -5.9254589393
 C       -11.5395532072        7.7649156979       -3.4146873493
 C        -9.7130414315        7.6973445046       -1.7391683793
 C       -14.0050799814        3.0188970169        1.6016524069
 C       -15.4192168655        4.8622152703        2.4426482037
 C       -10.9730768223        5.4806622725        8.9091941982
 C        -9.4763944525        4.6272374490        7.0433770644
 H       -13.0107797985        3.4713257550        9.6228170154
 H       -12.8652036760        1.9087117115        8.7737649058
 H       -13.6372734624        3.3472843180        7.9762444879
 H       -10.8981658068        4.8728557987        4.5508534990
 H       -11.2668538446        6.5729709426        4.9933251824
 H       -13.4933192431        6.4013983357        4.1073634483
 H       -13.6955464353        4.9263886538        4.7615579659
 H       -13.9403743205        4.1171864268       -1.2081666396
 H       -12.3627475852        4.0663056807       -0.2968741743
 H       -12.4986991356        6.7230742130       -0.9591514479
 H       -13.1900750050        6.1390763028       -2.3594255860
 H        -9.5552039685        7.7840343624       -5.4784336641
 H       -10.5295664052        6.3472653479       -5.6135848814
 H        -7.4978089810        6.2760271229       -5.8208180514
 H        -8.3574759965        6.4458154727       -7.2423362933
 H        -8.5030185482        1.0518092282       -5.6545108430
 H        -9.6526749661        1.8298399205       -4.5089285705
 H        -7.6256380709        1.0728771621       -2.8439221218
 H        -7.4823294828       -0.2388217183       -4.0508973043
 H        -7.7157513735       -1.2650027935        0.9875060732
 H        -8.8827658435        0.1270944023        0.7601645010
 H        -5.8038385979        0.2463995289        0.6231616295
 H        -6.7409809656        0.7278993386        1.9915504705
 H        -6.3630574417        5.1916438849        3.1269412419
 H        -7.4679655202        3.6920040059        3.2184783766
 H        -8.1559716957        5.2039365531        2.7499964858
 H        -4.5927423610        3.8908269993        1.7821211826
 H        -4.3282792302        2.1099589632        1.5051837293
 H        -5.5892216278        2.7238420228        2.6496921362
 H        -4.4497249146        4.2175720402       -0.5750710792
 H        -5.8362751688        3.8273618902       -1.5457713643
 H        -4.9004397924        2.4772010456       -1.0286945544
 H       -11.2206954146       -1.4749783078       -1.8143840506
 H       -10.6682922265       -0.6874034424       -0.3133479511
 H       -10.4370924907       -2.4236878446       -0.5611260640
 H        -8.3334225379       -3.2838616027       -1.9147258840
 H        -7.7488138923       -2.2848566292       -3.1694202209
 H        -9.5321721522       -2.8983550939       -3.1868743709
 H        -8.3167833606        2.4109409902       -7.6470117717
 H        -6.7602740933        1.7706298244       -7.1816685137
 H        -6.9392398306        3.2046183638       -8.1964771511
 H        -6.0070810790        4.8366685761       -4.9870512657
 H        -5.8717031043        4.9025578528       -6.8047439323
 H        -5.1367502960        3.5726759165       -5.8728642728
 H       -11.0242630985        8.6746587179       -3.8336290535
 H       -12.1692841830        8.0920735667       -2.6097098208
 H       -12.2372190542        7.3741941315       -4.2422186712
 H        -9.0740305592        8.4110929366       -2.2936618777
 H        -8.9964483482        7.0145145948       -1.2331805077
 H       -10.4187504993        8.2371721902       -1.1300270641
 H       -13.0664271003        2.7452903779        1.0601076848
 H       -14.8520526817        2.5219539029        1.1341847762
 H       -13.9294949382        2.4755237975        2.5168475059
 H       -16.1757828144        4.2269238411        2.0489425550
 H       -15.6127840007        5.8971652068        2.3331653181
 H       -15.4908219442        4.7063351177        3.5269523450
 H       -10.5547831711        6.4454841925        8.6966942009
 H       -10.4492837996        5.0299700319        9.8004293007
 H       -12.0363896045        5.5041890880        9.2135000579
 H        -9.3509965704        3.8216765089        6.2968354867
 H        -8.7820644580        4.4557775688        7.8945693427
 H        -9.1801961468        5.6109418793        6.6349507828
 Na       -8.2399119069        4.0332585709       -1.8826791959
