117

 C       -12.7345017163        3.2829263427        8.5785783793
 C       -11.4412094191        3.4428055281        7.7862952602
 O       -10.7604987658        2.4804845374        7.5130800283
 C       -10.8856333415        4.9446721754        7.5116049447
 C       -11.7684734790        5.4870970021        6.3451500539
 O       -12.8795488613        5.8704232505        6.7040264900
 C       -11.3533934671        5.4175319943        4.8443448990
 C       -12.5005867014        5.7896054100        3.9238883123
 C       -12.6345896754        4.8712392000        2.5947098699
 O       -11.6481645867        4.3262650471        2.1983522074
 C       -13.9801768080        4.7618525772        1.7009674940
 C       -13.7679470820        5.4566172964        0.3214508005
 O       -14.0719953460        6.6283601336        0.1575350736
 C       -12.9645860733        4.6824066829       -0.7491698945
 C       -12.4606004225        5.6062727710       -1.8957528573
 C       -10.9726034153        5.5853031204       -2.1458678762
 O       -10.3069513444        4.5805826047       -1.8956086246
 C       -10.2500042206        6.8717429144       -2.6465833570
 C        -9.3396622594        6.4395349721       -3.8817892841
 O        -8.2428130330        6.0354867746       -3.5768063783
 C        -9.8561913322        6.3206352203       -5.3606032407
 C        -8.8723274006        5.7066728665       -6.3824902614
 C        -9.0117776375        4.2005579218       -6.5305280925
 O       -10.1209541522        3.7347049600       -6.7616103234
 C        -7.7275365325        3.2026083632       -6.4163135973
 C        -7.7090739165        2.6886843817       -4.8446581159
 O        -7.0228357772        3.3161748128       -4.0272460813
 C        -8.6032524637        1.5384808702       -4.5272846231
 C        -8.1463924545        0.7109404774       -3.3083075210
 C        -9.4294980723       -0.0904694360       -2.7672958933
 O       -10.5711484920        0.2324763001       -3.0336883740
 C        -9.2346800331       -1.3066653465       -1.6369974779
 C        -8.0098705755       -0.8384399344       -0.7788517310
 O        -6.8491083335       -0.9608296453       -1.1908696536
 C        -8.2061827994       -0.1591664414        0.5841790186
 C        -6.9243757248        0.5516544415        1.0470549178
 C        -6.7779089375        1.9556259834        0.5029848372
 O        -7.3657423348        2.1303593480       -0.5566607945
 C        -6.0507854489        3.0894902357        1.2259172754
 C        -7.1922383265        4.1752461282        1.3988380305
 O        -7.5309808385        4.7286538080        0.3687033150
 C        -7.8508561156        4.6066368861        2.6944741692
 C        -5.2991898592        2.5739270046        2.6195167012
 C        -4.9701487871        3.7741265641        0.3082293851
 C       -10.5733592396       -1.5019330221       -0.9190017259
 C        -8.8298913887       -2.5943672176       -2.3417180157
 C        -7.9085839030        2.0559594242       -7.3916162086
 C        -6.3399502901        3.8784684258       -6.6389169640
 C       -11.2266387889        7.9475099116       -3.0684877942
 C        -9.3198357169        7.4988435572       -1.5141958340
 C       -14.3401853433        3.3172626351        1.6034732068
 C       -15.1850699818        5.5427191912        2.2897511126
 C       -11.1799729865        5.9508564221        8.7041943765
 C        -9.3775277675        4.8850413243        7.1415414137
 H       -12.7552272246        3.6291248915        9.6329408334
 H       -13.1303546826        2.2712420463        8.4433703227
 H       -13.3548791820        3.8717766504        7.9622186644
 H       -10.9624082833        4.4103522953        4.5667241038
 H       -10.4221772960        5.8826457406        4.6429162618
 H       -12.4650971245        6.8686612996        3.5579846497
 H       -13.3647820204        5.5675410666        4.5367186995
 H       -13.5005039072        3.8062180467       -1.1772298297
 H       -12.0642348684        4.3169611459       -0.2579132900
 H       -12.6644517853        6.6776872528       -1.6115418161
 H       -13.1070291813        5.4864263201       -2.7823129579
 H        -9.9518259679        7.4794306578       -5.5078828392
 H       -10.8757969060        5.9242847099       -5.3605237433
 H        -7.8620276770        6.0047047759       -6.1422821214
 H        -9.1985854223        6.1315752611       -7.3066400822
 H        -8.7059844579        0.9468791273       -5.4762360008
 H        -9.6137879783        1.9074954116       -4.4260782233
 H        -7.7726719255        1.3043689522       -2.4658629281
 H        -7.3898355804        0.0312127160       -3.6551977765
 H        -8.5714430181       -0.9092337698        1.3269955921
 H        -9.0173842030        0.6241229701        0.3898429432
 H        -6.0338257846       -0.0722780100        0.8139992406
 H        -6.9494675489        0.5737175438        2.1230722101
 H        -7.0651263938        5.0879813621        3.3059796998
 H        -8.2292830028        3.8686156858        3.2771876047
 H        -8.6265503639        5.2981446724        2.5132387350
 H        -5.1348095803        3.4843538036        3.2437955801
 H        -4.3715717413        2.1034751650        2.2135929971
 H        -5.8690611240        1.7858716810        3.1069085241
 H        -4.3761043358        4.4765168705        0.9160657191
 H        -5.4654954884        4.3807588800       -0.4068801011
 H        -4.1581542143        3.1139865583       -0.0445477664
 H       -11.4041072288       -1.5578630449       -1.6268694359
 H       -10.7821969182       -0.6455242982       -0.2844039654
 H       -10.6047677700       -2.3915536301       -0.2689510932
 H        -8.5444479802       -3.3262383882       -1.6237497655
 H        -8.0249438554       -2.3385985802       -2.9929461540
 H        -9.6201543134       -2.9668253379       -3.0297419201
 H        -8.9392597228        1.7162933042       -7.3639821980
 H        -7.2136308438        1.2061850216       -7.2853619241
 H        -7.6424765751        2.4843154944       -8.3452068828
 H        -6.1450784365        4.6826146765       -5.9439942729
 H        -6.2094560921        4.2162983183       -7.6417136892
 H        -5.6360892470        3.0294797048       -6.5064470503
 H       -10.6691942615        8.7406901972       -3.5829089468
 H       -11.7344402528        8.4936041262       -2.3397176230
 H       -11.9702878728        7.6588328703       -3.8460750443
 H        -8.5375603973        8.0396568196       -1.9861660733
 H        -9.0511630179        6.6641849174       -0.9079144846
 H        -9.9117305668        8.1118597206       -0.8851191726
 H       -13.4958093345        2.6812211616        1.2286316840
 H       -15.1182519364        3.1923473449        0.8208531189
 H       -14.6496662526        2.8984282577        2.5473239948
 H       -16.1333819615        5.2595483720        1.7945606798
 H       -15.2352919416        6.6019583671        2.0766273833
 H       -15.3094897582        5.3376706740        3.3764171441
 H       -11.0474155224        6.9636804225        8.4108791862
 H       -10.3684905063        5.7166413466        9.4463923397
 H       -12.2034835826        5.9754838393        9.0793581854
 H        -9.0442071570        3.8685207862        6.8879480629
 H        -8.7191297282        5.2242154681        7.9860044951
 H        -9.2174367927        5.5833868057        6.3116583242
 Na       -7.7995271684        4.3179303406       -1.9554417403
