117

 C       -12.8044197954        3.2932088682        8.4537568922
 C       -11.3899945477        3.4724691289        7.8643459993
 O       -10.7009174710        2.5355755453        7.5106826485
 C       -10.8870285266        4.9298510574        7.5812266963
 C       -11.8595818332        5.4237387325        6.3358764561
 O       -12.9892920690        5.8081223103        6.5782292807
 C       -11.4515805820        5.2981678015        4.8814178341
 C       -12.5853730550        5.7683657148        3.9054334934
 C       -12.5799838776        4.9558402838        2.5898705135
 O       -11.6003027609        4.3816033623        2.2137190207
 C       -14.0258442689        4.7632221545        1.7333420138
 C       -13.6524977831        5.5426850088        0.4650800997
 O       -14.0639000081        6.6827143048        0.2207022887
 C       -12.8956512270        4.7521256232       -0.6091964689
 C       -12.5006273063        5.6129634824       -1.8353810020
 C       -11.0247886612        5.6053839201       -2.0630356375
 O       -10.3689640852        4.5886274288       -1.9397490352
 C       -10.3341282202        6.8961204093       -2.7213126405
 C        -9.3971010157        6.4023701191       -3.8083037280
 O        -8.2505966953        6.0505840199       -3.5707330154
 C        -9.8708681253        6.4850371126       -5.3016420327
 C        -8.8910909155        5.7526665589       -6.2577082705
 C        -8.9641123415        4.2213384308       -6.4322087992
 O        -9.9362075706        3.6078158837       -6.7564966791
 C        -7.6295947089        3.2716471367       -6.3630713101
 C        -7.7428111210        2.7321367937       -4.9011043977
 O        -7.0395217207        3.3442390882       -4.0971633072
 C        -8.6132202065        1.4910229510       -4.5651674723
 C        -8.2829402259        0.7211842116       -3.2294988261
 C        -9.4358892283       -0.1001453416       -2.6920096664
 O       -10.5500089778        0.2589739581       -3.0026445135
 C        -9.1251183981       -1.2269469048       -1.6560656329
 C        -7.9177865887       -0.8172684956       -0.7792206587
 O        -6.8206051213       -0.9276391910       -1.2028899644
 C        -8.1608164846       -0.1475228560        0.6190334516
 C        -6.9094242879        0.5343613190        1.0634396174
 C        -6.7864577199        1.8284225325        0.3781037336
 O        -7.3839628568        2.1611009035       -0.6705268970
 C        -6.0459575648        3.1175124231        1.1511035208
 C        -7.0875259917        4.1864116700        1.4087050871
 O        -7.5936481681        4.7652992756        0.4088086567
 C        -7.7252190891        4.4783784839        2.7305814392
 C        -5.3344439315        2.7018784015        2.5388619209
 C        -4.9190883222        3.5957250223        0.2046507894
 C       -10.4964961697       -1.3215018302       -0.9613428158
 C        -8.7986059122       -2.6688748957       -2.4263241796
 C        -7.8271784331        2.1184634722       -7.3163993968
 C        -6.3015173238        3.9817041630       -6.5786351966
 C       -11.2717618267        8.0370778066       -3.2040591957
 C        -9.4112648474        7.4026850850       -1.5426056611
 C       -14.2503377903        3.2737643415        1.5535642891
 C       -15.3344090032        5.3708775676        2.3474404155
 C       -11.0376195785        5.8803998470        8.7440932939
 C        -9.4510047846        4.7177258679        7.1029366023
 H       -12.8340725321        3.6798981645        9.4987823471
 H       -12.9753689259        2.2838592682        8.4653966082
 H       -13.5877241995        3.7717563115        7.8370240316
 H       -10.9720066801        4.4534514881        4.5767699711
 H       -10.5605951030        5.9284039864        4.7552930594
 H       -12.3438479219        6.7971223097        3.6494959449
 H       -13.5606904013        5.6525821629        4.3572150316
 H       -13.5684184280        3.9615468422       -0.9593912038
 H       -11.9245163223        4.2996011275       -0.2387487085
 H       -12.8636917236        6.6344444464       -1.7705374630
 H       -13.0818835604        5.2354099331       -2.7217401831
 H       -10.1680590792        7.5714142505       -5.4953973215
 H       -10.7948704530        5.9280087643       -5.2169837466
 H        -7.8656221679        5.9161434900       -5.8965793069
 H        -8.9874640755        6.2041936344       -7.2491683525
 H        -8.6974967404        0.8829830317       -5.5127593760
 H        -9.6426991057        1.8981817127       -4.5095253635
 H        -8.0097833044        1.4463421738       -2.4653866646
 H        -7.4684178801        0.0667208990       -3.3915607729
 H        -8.4864233314       -0.8741701711        1.2985623464
 H        -8.9430214527        0.6394505522        0.4323302964
 H        -6.0298285553       -0.0978786652        0.7404495645
 H        -6.7915624535        0.6464681463        2.1569883593
 H        -7.0213893700        4.7635607976        3.5054343734
 H        -8.0879758107        3.5029018196        3.0511448081
 H        -8.5677288631        5.0811852094        2.7091430944
 H        -4.9049701722        3.6193165802        2.9512496459
 H        -4.6146567339        1.9169536085        2.2764503180
 H        -6.1332504337        2.2633387687        3.1897026590
 H        -4.6002379292        4.5788723884        0.5435879262
 H        -5.3386296125        3.8133755799       -0.7451357470
 H        -3.9585669624        3.0534946743        0.2726493077
 H       -11.3133473071       -1.4461463428       -1.6665660967
 H       -10.7570998350       -0.4252455820       -0.3897337853
 H       -10.4792752492       -2.1599990172       -0.2323227103
 H        -8.7796029980       -3.4018667743       -1.5745781498
 H        -7.8219404202       -2.6691943964       -2.9598108942
 H        -9.5352375886       -2.8959593273       -3.1684081072
 H        -8.8872883398        1.9537720502       -7.4333875357
 H        -7.3275010244        1.2159347924       -7.0337177460
 H        -7.3736610722        2.3993887865       -8.2292722754
 H        -6.0699784371        4.5940536352       -5.7107489066
 H        -6.2975257708        4.5894877254       -7.4684665661
 H        -5.5404482785        3.1459998342       -6.7380641851
 H       -10.7777846645        8.9590834600       -3.6336387592
 H       -11.9009304704        8.5044620694       -2.3868326559
 H       -11.9394705832        7.7336250395       -4.0059688841
 H        -8.5885785472        7.9745888236       -1.9348134755
 H        -9.1963051732        6.5492819736       -0.9784037594
 H       -10.0476615976        8.0329048281       -0.8862661974
 H       -13.5597739218        2.7477534788        0.9633906944
 H       -15.2474370346        3.1510244711        0.9995338344
 H       -14.2993449754        2.7283566624        2.5380217028
 H       -16.2059709098        4.8378041466        1.8870135522
 H       -15.5647069885        6.3585260260        1.9334017237
 H       -15.4922798809        5.3590225926        3.4018583517
 H       -11.1444999033        6.9540506236        8.4421884610
 H       -10.1361580091        5.7815489917        9.3689023625
 H       -11.9786465461        5.7302342973        9.2771982116
 H        -9.4503783028        3.7639286547        6.5615771945
 H        -8.7584568738        4.5497706042        7.9697110475
 H        -9.0423151047        5.5370027193        6.4744782591
 Na       -7.9225994444        4.2815533312       -2.0356333259
