117

 C       -12.0717942049        7.0865712996        1.2125591984
 C       -11.2605230656        5.8526611380        1.6833755736
 O       -10.7158591429        5.0642612135        0.9589206807
 C       -11.0503777338        5.7973752894        3.3191236800
 C       -12.1588721903        4.7909150963        3.9598806986
 O       -11.8059470774        3.6809309284        4.1971098524
 C       -13.6588898861        5.2174611380        4.0938292218
 C       -14.5960691192        4.0713972212        4.0918250657
 C       -14.9381086305        3.7883950423        2.5448221613
 O       -15.1192597647        4.6752082406        1.8040531116
 C       -15.1961331786        2.2168714122        1.9736552184
 C       -14.2740565932        1.1997412235        2.6148592034
 O       -13.3958202862        1.5906647893        3.3869942267
 C       -14.4293261025       -0.3118392274        2.3688826893
 C       -13.0780967637       -0.9261159805        2.0320221965
 C       -12.3689446453       -0.4647700770        0.7846917393
 O       -12.1379821467        0.7812107701        0.5783557072
 C       -11.8353160443       -1.5829331048       -0.2070237596
 C       -10.2512798650       -1.7850005017        0.2512674841
 O       -10.1503253199       -2.5302279744        1.2079509728
 C        -8.9442764420       -1.1370336874       -0.3753330482
 C        -7.8686405382       -1.0760552898        0.7134062876
 C        -8.2198902722       -0.1520080644        1.7262901929
 O        -9.3684057641       -0.0657478105        2.2024523150
 C        -7.1857108445        0.9757670904        2.1479643326
 C        -7.6049127345        2.3373906681        1.1586215405
 O        -8.7902416142        2.5436689149        1.0819316799
 C        -6.4988340720        3.1126156821        0.4400629676
 C        -6.8306756423        3.0431948161       -1.1497154159
 C        -5.6527458850        3.7822323657       -1.8553392193
 O        -4.8818592704        4.3607083026       -1.1064298367
 C        -5.9277962841        4.0698630252       -3.2889526154
 C        -7.2155637205        5.0369005766       -3.3315829216
 O        -7.9273600300        5.2048710888       -2.3391445251
 C        -7.5681067462        5.8379684764       -4.6293318260
 C        -7.1091491251        7.3825110531       -4.4802505392
 C        -8.0161971174        8.1899582470       -5.4976811510
 O        -9.1832333902        7.8006078590       -5.4233508733
 C        -7.5812962516        9.3616574263       -6.5125998272
 C        -6.2505016011        9.1401853924       -7.4931241032
 O        -5.4813490408        8.2487150879       -7.2525589461
 C        -6.0254560166       10.2091737936       -8.5607931341
 C        -8.8377843644       10.0568471146       -6.9620759996
 C        -6.9036023891       10.3268535319       -5.4697375215
 C        -4.5502825432        4.6531089447       -3.8878308112
 C        -6.3108095867        2.7213122063       -3.9331447601
 C        -7.4091592785        1.4034507939        3.8026677851
 C        -5.6765521654        0.5588509538        2.0205639771
 C       -12.3861776747       -2.9389145653        0.0189535541
 C       -11.7594308456       -0.9480304399       -1.6830739076
 C       -16.5914563766        1.8982832316        2.5697355066
 C       -15.2274062633        2.2432016598        0.5279189233
 C        -9.6034183153        5.3353248355        3.6569930075
 C       -11.3659050024        7.2996818116        3.9085038142
 H       -11.4673880190        7.8886886920        1.6617927196
 H       -13.1000112453        7.0546827067        1.5189258519
 H       -12.0576207758        7.1275111311        0.1315105522
 H       -13.8044710196        5.9763194896        3.3713141003
 H       -13.6586812350        5.7073364640        5.0508086276
 H       -15.4971538634        4.2843111096        4.6083751754
 H       -14.0368223299        3.2077983536        4.6559183613
 H       -15.0535276488       -0.4455501534        1.4457665702
 H       -15.0440884462       -0.8224743872        3.1362710363
 H       -13.3631825622       -2.0477343189        1.8891005605
 H       -12.4093235095       -0.9684186182        2.9417002379
 H        -9.1504592184       -0.1005768058       -0.6414652585
 H        -8.4783259923       -1.6689796341       -1.1747047842
 H        -6.9828102948       -0.7998710871        0.2364681666
 H        -7.6417655345       -2.1224585825        0.9325627012
 H        -5.5106407883        2.7630976627        0.6477373959
 H        -6.6922279840        4.1671746788        0.7748548409
 H        -7.8200610033        3.6297416919       -1.4072604106
 H        -6.8944660961        1.9219109656       -1.4875990839
 H        -8.6496718575        5.7405221648       -4.6718130277
 H        -7.0666060963        5.4012727275       -5.5111756514
 H        -6.0657215611        7.4627040647       -4.7805267067
 H        -7.3014785883        7.5431148448       -3.4175027006
 H        -6.4104008593       11.1124153869       -8.2541703996
 H        -6.7800068248       10.0730419026       -9.3470762468
 H        -5.0527601768       10.0425998981       -9.1270012701
 H        -9.6667214001        9.2831891002       -7.0226383365
 H        -8.8999266473       10.3456733410       -8.0718916080
 H        -9.2113877152       11.0133346965       -6.5205933961
 H        -6.0179674195        9.7947924327       -5.2173882284
 H        -7.6771960682       10.3917931533       -4.7368435313
 H        -6.5587103699       11.2323555798       -5.9783148921
 H        -4.7998277442        4.6416412466       -4.9538100095
 H        -3.7409900591        3.9559417319       -3.5916961466
 H        -4.2012807498        5.5537519884       -3.4499397705
 H        -6.0429489216        1.8208735681       -3.3677274499
 H        -5.9279086381        2.7498979484       -4.9744611254
 H        -7.3368059399        2.7419907994       -4.0177607710
 H        -6.5985498956        2.1641533459        4.0639646258
 H        -7.4813489553        0.6195124571        4.4750244753
 H        -8.3825665516        1.9797030953        3.8426736983
 H        -5.0494885317        1.2073620289        2.7155454684
 H        -5.3728204671        0.6898847826        0.9912333268
 H        -5.5352618099       -0.4484002329        2.4271258421
 H       -13.3210340044       -3.0206820299       -0.4674502140
 H       -12.4542442470       -3.2909350965        1.0470974128
 H       -11.7923220071       -3.6792893762       -0.4678149028
 H       -12.6804577132       -0.4079293876       -2.0036174408
 H       -11.6020204733       -1.7685653555       -2.3762117783
 H       -10.9702312458       -0.3296730902       -1.9305902980
 H       -16.8018091550        2.3285553401        3.5463005692
 H       -16.5938007656        0.8522825243        2.7036239749
 H       -17.4354999054        2.2280931401        1.9651595945
 H       -15.5376185183        3.2064669786        0.1520422559
 H       -15.8378684589        1.4435655783       -0.0170536866
 H       -14.1820968354        2.1388002403        0.1344074644
 H        -9.3167816594        4.2688997405        3.4602445107
 H        -9.5311369414        5.6032947901        4.7103708453
 H        -8.9577214074        6.0753574464        3.2164151584
 H       -11.0738427222        7.3116001496        4.9181408688
 H       -12.4611181266        7.3383552398        3.9791081194
 H       -10.9765700762        8.0952059883        3.3177723335
 Na      -11.0158592113        1.6736807821        2.7311761038
