117

 C       -11.7580388701        3.4265128921        8.8902143911
 C       -11.1035764211        3.9045023130        7.4870274218
 O       -10.6864725981        3.0631351645        6.6981009753
 C       -10.8398726267        5.4602899059        7.2571276931
 C       -11.9049824386        5.9419113028        6.2343270170
 O       -12.7573687549        6.7588959009        6.5268000298
 C       -11.7617799886        5.2988613857        4.9007027962
 C       -13.0068398548        5.5002194808        4.0038832437
 C       -12.7442616618        4.9415226944        2.6392259657
 O       -11.6858288659        4.3950276692        2.3573954910
 C       -13.7248367313        5.1372338776        1.3570050695
 C       -12.9175416414        5.5286304521        0.0688799323
 O       -12.5097975285        6.6564357663       -0.1103957203
 C       -12.3972534590        4.3898544249       -0.8948639445
 C       -11.9872987925        4.7383456011       -2.3480648957
 C       -10.5194543066        5.0942517755       -2.3675803745
 O        -9.7051288811        4.3026396826       -1.8839069726
 C        -9.9686456677        6.5436194041       -2.7382643541
 C        -8.8509867393        6.2758714180       -3.7821155780
 O        -7.8154310706        5.6726634881       -3.6154241642
 C        -9.0773356388        6.6766297077       -5.2852916510
 C        -8.5295240211        5.5812264721       -6.2726633811
 C        -9.1145564061        4.2016036068       -5.9606623814
 O       -10.2235083157        4.0722278534       -5.4639269053
 C        -8.2364915822        2.9423664667       -6.2170226048
 C        -8.0963444264        2.3747865285       -4.8698467656
 O        -7.2684944087        2.8638734859       -4.1303758700
 C        -9.1617732835        1.3392306260       -4.3944838217
 C        -8.6555604473        0.4619383110       -3.2284278559
 C        -9.7057929871       -0.3698622662       -2.4001604880
 O       -10.8981949859       -0.2173006860       -2.5463110067
 C        -9.1713978863       -1.4442058441       -1.4991964097
 C        -8.1796627325       -0.6848859523       -0.3743248439
 O        -6.9951592521       -0.6879014672       -0.4132810986
 C        -8.9901664745        0.0351000993        0.8045452575
 C        -8.0729858434        1.0147333029        1.5643656752
 C        -7.4180458607        2.0289228168        0.6034250181
 O        -7.8345783950        2.0953153882       -0.5910858557
 C        -6.4475207942        3.0579337182        1.3064617249
 C        -7.1682602227        4.5309870428        1.0959895322
 O        -7.0239217198        5.1530772837        0.0405654899
 C        -8.2132652992        5.0376089521        2.0741535248
 C        -6.2215421249        2.6027992325        2.7305062942
 C        -5.1645267129        2.9404773537        0.4722998194
 C       -10.3294599381       -2.0237355747       -0.7322841149
 C        -8.4355993083       -2.5037732866       -2.3411687025
 C        -8.9719792819        2.0039693059       -7.2512014482
 C        -6.8999217543        3.2898502323       -6.8986031712
 C       -11.0895403421        7.4648256849       -3.2693122963
 C        -9.3628349612        7.1849211183       -1.4293609275
 C       -14.3835383982        3.6887735855        1.1707943363
 C       -14.7644695500        6.2788253592        1.5912790246
 C       -10.9736249981        6.3513820859        8.5736447731
 C        -9.4155682645        5.7078992938        6.7005568759
 H       -11.2602198323        3.9106055458        9.7093337749
 H       -11.7238070521        2.3444811948        9.0667699011
 H       -12.7913328905        3.9269810335        8.7566835096
 H       -11.7359241971        4.1863954450        5.1421994857
 H       -10.9254715159        5.7362274480        4.4609724546
 H       -13.3058076047        6.5622366282        3.9018196889
 H       -13.9232917162        5.1275273887        4.4278006871
 H       -13.1770244027        3.5883497056       -1.0053597371
 H       -11.5909322421        3.8166024113       -0.4669885055
 H       -12.5972464217        5.5704462641       -2.7246153263
 H       -12.0134955641        3.8731887532       -2.9662309805
 H        -8.6442683681        7.6158196247       -5.5145721033
 H       -10.1899344100        6.8576940264       -5.3881727946
 H        -7.4280392019        5.5384533641       -6.1998020024
 H        -8.7850543152        5.8510859088       -7.3396972651
 H        -9.4834997996        0.6443218015       -5.1869380097
 H        -9.9849434059        1.9659434375       -4.0101758383
 H        -8.0021159275        1.0126705201       -2.5479238939
 H        -7.9468537756       -0.2747943636       -3.6322335828
 H        -9.1806880136       -0.8781967776        1.4106045678
 H        -9.9225940092        0.4452327090        0.5412298943
 H        -7.3563865900        0.4328925751        2.1509857537
 H        -8.7246241955        1.6652857188        2.1185889422
 H        -9.2532840069        5.0300088267        1.7296670512
 H        -8.0772732676        6.1567587328        2.3622890121
 H        -8.1469406315        4.4758337322        3.0411456927
 H        -5.4696572010        3.2440397041        3.2050827931
 H        -5.7057649193        1.6592840500        2.7472572713
 H        -7.1228635821        2.5454350817        3.3242896331
 H        -4.4109828044        3.5690239264        0.9892687629
 H        -5.3370425187        3.4427704880       -0.5341562578
 H        -4.7398368400        1.9717030285        0.2699064852
 H       -10.9420583639       -2.7340863741       -1.2712713369
 H       -11.0507108071       -1.2481560551       -0.4914414574
 H        -9.8906129869       -2.4125225979        0.1534967091
 H        -8.2595174578       -3.3477624704       -1.7149475218
 H        -7.4780542525       -2.1411944805       -2.7096599308
 H        -9.1084689883       -2.8038474864       -3.1260362557
 H        -9.9914345320        1.8014290305       -6.8577088067
 H        -8.4731078792        1.0528609861       -7.4798119508
 H        -9.0857621391        2.4733843611       -8.2701021408
 H        -6.2416099381        3.8476366562       -6.2377222381
 H        -7.0432108748        3.9081541533       -7.8051564731
 H        -6.4314251331        2.4288277992       -7.1927971440
 H       -10.8047861157        8.4071365323       -3.6085461624
 H       -11.8499016406        7.7000961490       -2.5262232748
 H       -11.6158099555        7.0192182127       -4.0799136717
 H        -9.4070299128        8.2643640836       -1.5970838520
 H        -8.3664514549        6.7822384820       -1.2921138622
 H       -10.0483570804        6.9962665286       -0.6259927914
 H       -13.5725156297        2.9493788822        1.2750644666
 H       -14.9623294518        3.6850920629        0.2708024941
 H       -15.0713874065        3.4959801758        2.0090356643
 H       -15.5241548078        6.1855946654        0.8301399251
 H       -14.2132601852        7.2433779001        1.4963002802
 H       -15.1789180934        6.2702202928        2.6232203649
 H       -11.0917352368        7.3538395841        8.1735056434
 H       -10.0867739174        6.3586386767        9.1866633049
 H       -11.7684882646        6.0144032142        9.2675182520
 H        -9.2339058576        5.4208456201        5.6516415533
 H        -8.6802482607        5.2277442462        7.3087216605
 H        -9.0900816072        6.7431984373        6.7894067505
 Na       -7.5275236918        3.9237873505       -1.9508668880
