117

 C       -11.5383160282        3.6042359782        8.9194726580
 C       -10.8331465979        4.1201728425        7.6180311815
 O       -10.4015274378        3.3381228361        6.8136184350
 C       -10.8103876703        5.6695252158        7.2107806952
 C       -11.9204311083        5.8441638762        6.1236484288
 O       -12.8390190041        6.5976768071        6.3806985102
 C       -11.6390235135        5.3817373462        4.6632680924
 C       -12.7528945657        5.8007325961        3.6267081301
 C       -12.3548355343        5.0806051620        2.2067291076
 O       -11.2255800341        4.6581184177        2.0948942865
 C       -13.5418640548        5.1573615511        1.1628497636
 C       -12.8095871003        5.2946548251       -0.3002794357
 O       -12.0293809569        6.2239137880       -0.3431244178
 C       -12.9835657501        4.3024441379       -1.4257685750
 C       -12.1986379038        4.7994645619       -2.7317747746
 C       -10.6343397146        5.0652073293       -2.5411376334
 O        -9.8787425895        4.1838599933       -2.2481592442
 C       -10.0543354542        6.5361407778       -2.7322951165
 C        -8.8937174504        6.3443880819       -3.7238153264
 O        -7.8547806559        5.7874053287       -3.3187302522
 C        -8.9758519802        6.6924668354       -5.2226607604
 C        -8.2582419050        5.6125737659       -5.9252761326
 C        -9.0394429571        4.2959662903       -5.7438538952
 O       -10.1923199647        4.3843145601       -5.3981536699
 C        -8.4761778785        2.8799022573       -6.1124387975
 C        -8.1846012871        2.3215870444       -4.6435179237
 O        -7.1405859505        2.5930685898       -4.0655183058
 C        -9.1181332010        1.3622330562       -3.9555240549
 C        -8.4161765018        0.3033053380       -3.0737122921
 C        -9.4655132602       -0.3867278232       -2.2624112855
 O       -10.6239024430       -0.1037776410       -2.5554671959
 C        -9.1292843974       -1.6168962170       -1.2073384583
 C        -8.5402203907       -0.9338730119        0.0033905456
 O        -7.3136187546       -0.9223624048        0.1695429633
 C        -9.3755769405        0.0164922610        0.8899712896
 C        -8.4429817891        1.0716637794        1.6176577005
 C        -7.7991852609        2.0910471668        0.6855689416
 O        -8.2037891882        2.2423318275       -0.4205159282
 C        -6.7174612558        2.9880316781        1.2918601746
 C        -7.0209864704        4.3976197013        0.8234272186
 O        -6.6403173708        4.7902846435       -0.2586499864
 C        -7.7921566048        5.3041859381        1.7807796612
 C        -6.3371417501        2.8425988610        2.8550385387
 C        -5.4981933486        2.5062202690        0.4741516121
 C       -10.4613215793       -2.3765004887       -0.9885892914
 C        -8.0977730382       -2.5966530133       -1.7810824124
 C        -9.6060642280        2.0880142963       -6.7145963873
 C        -7.2393301072        3.0181907253       -6.9782552526
 C       -11.0853950980        7.5968333851       -3.0876820400
 C        -9.3687130702        6.8716433634       -1.4069342405
 C       -14.5114372776        4.0319796374        1.3913459118
 C       -14.3182240011        6.4806431347        1.4322870085
 C       -11.0633114921        6.5516123860        8.4274909923
 C        -9.4713459623        6.0153031399        6.5635145363
 H       -10.8743949859        3.9562917433        9.7963926271
 H       -11.5126252278        2.4945710763        8.8663198382
 H       -12.4848493495        4.0773542346        8.9744040098
 H       -11.6069209528        4.3016596391        4.7050041432
 H       -10.6293338223        5.6753113736        4.3670057087
 H       -12.5644195126        6.8811521601        3.4196755032
 H       -13.7862492353        5.6831588296        3.9611084937
 H       -14.0046364126        4.0108629920       -1.6803634712
 H       -12.4342633088        3.4177240057       -1.0221218234
 H       -12.5729772063        5.7352184221       -3.0969140728
 H       -12.2668478439        4.0604397868       -3.5186992739
 H        -8.4142660155        7.6576151077       -5.3205706274
 H        -9.9781264368        6.7735213097       -5.6546713519
 H        -7.1962444917        5.3956393524       -5.6505153403
 H        -8.1606690604        5.7915470220       -7.0022504837
 H        -9.7602160601        0.8484453016       -4.6530395555
 H        -9.7419374479        1.9484348666       -3.2177130422
 H        -7.7794257031        0.8058209820       -2.3725901628
 H        -7.8430043249       -0.4961170519       -3.5786702766
 H        -9.7550664150       -0.6102173025        1.6907295101
 H       -10.0742274878        0.5100411965        0.2723331244
 H        -7.7523828762        0.5167238704        2.1993742980
 H        -9.1344682669        1.6580270613        2.2606971489
 H        -8.4292938878        6.0682457420        1.2124641459
 H        -7.1688798821        5.8333262692        2.4702595998
 H        -8.6000916805        4.8716291047        2.4371869068
 H        -5.5789037669        3.4519597457        3.2913549797
 H        -6.0712895725        1.7936668574        2.9535902054
 H        -7.1362346486        2.9711957503        3.6077502475
 H        -4.5568704590        2.9695157045        0.7510381037
 H        -5.6514710048        2.7920970745       -0.5457958073
 H        -5.3351003989        1.4243734088        0.7319503592
 H       -10.6676401635       -2.8698814324       -1.9328823768
 H       -11.2709636221       -1.7189433763       -0.6804666896
 H       -10.3080126311       -3.1919821994       -0.2680279796
 H        -8.0338501638       -3.4339523479       -1.0802033067
 H        -7.2047976141       -2.0176277239       -1.9026272436
 H        -8.3329663181       -2.9186681684       -2.7494545287
 H       -10.5940235341        2.1590161226       -6.2433645124
 H        -9.4175707057        1.0062579904       -6.7690664635
 H        -9.6271982851        2.4448382255       -7.7515095319
 H        -6.3719457224        3.2195800077       -6.4074620960
 H        -7.3185170843        3.7848162979       -7.6851732705
 H        -7.0424395002        2.0501774648       -7.5150294228
 H       -10.6023898794        8.5504567891       -3.0140197193
 H       -11.9656825406        7.6839222695       -2.5033055502
 H       -11.4116944246        7.4934193365       -4.0794818763
 H        -8.7840497260        7.7655879258       -1.5366479802
 H        -8.7298937158        6.0553325406       -1.1871963093
 H       -10.1673635499        6.8845053398       -0.6603855466
 H       -14.2219217376        3.2125711062        0.8103534776
 H       -15.4864764504        4.3009856143        0.9854064273
 H       -14.4212736561        3.8309398188        2.4780170722
 H       -15.2703940097        6.6554075912        0.8690102845
 H       -13.6562596056        7.2269368209        0.9982589077
 H       -14.5431904266        6.5501832845        2.4876486334
 H       -12.1123670439        6.9213126815        8.3859901119
 H       -10.3272250118        7.3462805744        8.3890129412
 H       -11.0529605979        6.0973993865        9.3946965629
 H        -9.1152493627        5.2212941662        5.9003556889
 H        -8.5951902211        6.1302624977        7.2115578868
 H        -9.5835478397        6.9127739133        5.9276161453
 Na       -7.6543319382        3.8306370994       -2.0862073070
