117

 C       -11.9858523342        7.2564185035        1.2036088185
 C       -11.2443367801        6.0223251388        1.7500788990
 O       -10.9333234259        5.1590695501        1.0120306629
 C       -11.1042691560        5.9384123554        3.3487714550
 C       -12.1042556503        4.8922957540        3.9503609330
 O       -11.8273010930        3.7946654636        4.3916104750
 C       -13.6239510320        5.2924142403        4.0774661360
 C       -14.5479939028        4.0564032074        3.9493691965
 C       -14.9250778927        3.7279757356        2.5272057539
 O       -15.1070485859        4.6980603248        1.7508636639
 C       -15.3121507257        2.2832638611        2.0389857970
 C       -14.2415276062        1.2958188941        2.6875398861
 O       -13.3876374488        1.5537641543        3.5502532446
 C       -14.3512246931       -0.2507132130        2.4713471248
 C       -13.0656506475       -0.9391491137        2.0098462768
 C       -12.2872741173       -0.4178016119        0.8251636658
 O       -12.0840402423        0.7704625423        0.6316056477
 C       -11.6829963741       -1.5136040398       -0.1732802536
 C       -10.2265480891       -1.6942441025        0.4041457552
 O       -10.0766243019       -2.3915542510        1.3481221887
 C        -8.9994882579       -1.3042618190       -0.3892260415
 C        -7.8151144589       -1.0639934935        0.6638347692
 C        -8.2951776913        0.0631308511        1.8184404529
 O        -9.4445434252        0.0453852889        2.1927660600
 C        -7.2439591445        1.0791235404        2.3082032549
 C        -7.6934533133        2.3294449803        1.2774848270
 O        -8.8299752082        2.7778656934        1.2283971633
 C        -6.6299100498        2.9578841993        0.3468830497
 C        -6.8492845840        2.7455529953       -1.1168931499
 C        -5.7029088166        3.7097462467       -1.8750054697
 O        -4.8051798235        4.2066539266       -1.2336587904
 C        -5.8402771220        4.0382982021       -3.4311387140
 C        -6.9756832088        5.0718995072       -3.3492662819
 O        -7.7470974384        5.0694832247       -2.3452867970
 C        -7.4116604046        5.8235841411       -4.6390249951
 C        -7.1298506688        7.3832862756       -4.5580088505
 C        -8.0537381676        7.9717972266       -5.6607963082
 O        -9.1985485537        7.7485544797       -5.7020625257
 C        -7.4690852759        9.2434088005       -6.3846575625
 C        -6.3050768171        9.1028497638       -7.5020077052
 O        -5.4114357004        8.2843430195       -7.3406651879
 C        -6.1137597557       10.1591231895       -8.5904787363
 C        -8.7270282575        9.8248110121       -7.0276151009
 C        -6.7707676288       10.3745234894       -5.3872477102
 C        -4.4139787842        4.6458734469       -3.9540007814
 C        -6.1631160299        2.7415177785       -4.2789199084
 C        -7.4335867739        1.3289836078        3.8171867434
 C        -5.9159222575        0.4370666646        2.0890492525
 C       -12.3783320435       -2.8667649027       -0.0801332139
 C       -11.9531601974       -0.8911120634       -1.6202502297
 C       -16.7890980771        1.9184882437        2.6088394188
 C       -15.3661340844        2.1588421420        0.5191982181
 C        -9.7245053074        5.2678485427        3.6340665409
 C       -11.3312923658        7.3091539867        3.9163987635
 H       -11.6647071643        8.1605414899        1.6212435826
 H       -13.0310579253        7.0198834483        1.4342503208
 H       -11.9244465817        7.2003061140        0.1851221827
 H       -13.8166108316        6.1062909383        3.2884375488
 H       -13.7180996285        5.8176714629        5.0272853789
 H       -15.5569255866        4.1777164227        4.5301558673
 H       -14.0568354680        3.1785677999        4.3679511382
 H       -15.1890515019       -0.4238050820        1.7555871872
 H       -14.7713366108       -0.6939822192        3.3808010408
 H       -13.1459054682       -2.0271216397        2.1344042141
 H       -12.3454150150       -0.6377101343        2.8239433247
 H        -9.1149346001       -0.4151117781       -0.9562853201
 H        -8.8116386017       -2.1676518893       -1.1171343847
 H        -6.8978142689       -0.8781622817        0.0460638140
 H        -7.5805212845       -1.9710443605        1.0826852235
 H        -5.5631110501        2.5330453061        0.4658363210
 H        -6.7680476548        4.0152704486        0.5436801151
 H        -7.8568414613        3.0246576531       -1.6098219463
 H        -6.4837147339        1.7511277900       -1.4202004953
 H        -8.5146360347        5.6019564532       -4.5488519124
 H        -6.9205193536        5.4273944738       -5.5528960219
 H        -6.0838268909        7.5308555222       -4.8655193147
 H        -7.3924829915        7.7232175312       -3.5638700302
 H        -6.4958869037       11.1201344355       -8.3376403374
 H        -6.6967313467       10.0074873621       -9.5435631828
 H        -5.1143768163       10.0227223045       -8.8930655646
 H        -9.3444211299        9.0938296785       -7.4643393540
 H        -8.4528812122       10.3279680642       -7.9173817062
 H        -9.3851853387       10.5567048488       -6.5537821797
 H        -5.7367449035       10.1222704629       -5.1226079522
 H        -7.5013767490       10.4890363279       -4.6783711108
 H        -6.6456532838       11.2141375355       -6.0838031482
 H        -4.4503281291        4.5907639933       -4.9834950955
 H        -3.5914172841        4.0893802019       -3.4134123097
 H        -4.2327214996        5.6944662555       -3.6089373247
 H        -5.5781362623        1.9136463096       -3.8623841899
 H        -6.0824853081        2.8548229932       -5.3444985589
 H        -7.1580640869        2.4709017080       -4.0583027085
 H        -6.5307733523        1.6286256409        4.2224931751
 H        -7.7734203053        0.4183488045        4.3226135650
 H        -8.2133441107        2.0550810373        3.9489581339
 H        -5.0414653101        1.0600609074        2.2707787374
 H        -5.9876842903        0.0560716495        1.0441953516
 H        -5.8539155256       -0.3885478185        2.8457780230
 H       -13.5223695738       -2.8592364603       -0.0320624258
 H       -11.9591576693       -3.5864351672        0.6330567139
 H       -12.2287282647       -3.3287816122       -1.0832173309
 H       -12.9634359666       -0.5190700897       -1.6904154517
 H       -11.7992624084       -1.7123923130       -2.3353772541
 H       -11.3077445129       -0.1223028619       -2.0470431031
 H       -17.3089311876        2.7212487240        3.1796533868
 H       -16.6687436186        0.9603348750        3.2221890322
 H       -17.4903191202        1.7347075769        1.7752084458
 H       -15.6150822281        3.0163120522       -0.0839565378
 H       -16.0143726469        1.3647039128        0.2548879832
 H       -14.3316966329        1.8457478014        0.1278921709
 H        -9.8722159613        4.2376029006        3.8812236971
 H        -9.1587147876        5.8008795703        4.4628719695
 H        -9.1252600300        5.4359117697        2.7230851552
 H       -11.2040088556        7.2110389602        4.9899452507
 H       -12.3511235614        7.6608309016        3.7612346726
 H       -10.5943653006        7.9219363130        3.3383942033
 Na      -11.1113317560        1.6405132351        2.7630981485
