117

 C       -11.4533579137        3.7492333387        8.8912878229
 C       -10.7126443391        4.2731296068        7.6293278202
 O       -10.1035939471        3.5384722313        6.8916795807
 C       -10.7073751815        5.8250467102        7.1798298408
 C       -11.7027386343        5.8794972409        5.8760573771
 O       -12.8707752716        6.1996574785        6.1022642002
 C       -11.3366452740        5.4441091341        4.5021799833
 C       -12.5187040329        5.6376619037        3.5300223774
 C       -12.1801862799        5.2040087065        2.0220879332
 O       -11.1377348539        4.6781461252        1.7461595385
 C       -13.3857122586        5.2968551080        0.9459283317
 C       -12.6649248278        5.5472291331       -0.4399954338
 O       -12.1355086478        6.6173331493       -0.5487761751
 C       -12.8643411557        4.5379993111       -1.6107236898
 C       -12.1407529463        5.0447416877       -2.8341984980
 C       -10.6449035912        5.1051238914       -2.5747495353
 O       -10.1186909176        4.1025723960       -2.1055829698
 C        -9.8831552410        6.4668837792       -2.7098480006
 C        -8.7098025862        6.1645989998       -3.6619420197
 O        -7.6988125351        5.5056720986       -3.2826133359
 C        -8.8145846185        6.5985159805       -5.0700918472
 C        -8.3643217888        5.5366251419       -6.0449733435
 C        -9.2209871265        4.2463958815       -5.7801870340
 O       -10.2689021651        4.3799741952       -5.1901328761
 C        -8.6710204410        2.8311818961       -6.0715646918
 C        -8.2535560345        2.2119886845       -4.6235011651
 O        -7.2596398704        2.6692415367       -4.0758440845
 C        -9.2366531132        1.3310703522       -3.7969566749
 C        -8.4551824591        0.3555481411       -2.9359177368
 C        -9.4763840395       -0.4444332502       -2.0654809344
 O       -10.6230635861       -0.1161908003       -2.0656889314
 C        -9.0317775711       -1.6703070051       -1.0389007957
 C        -8.4823425982       -0.8357950008        0.2010655953
 O        -7.3231174777       -0.8142202260        0.5458285996
 C        -9.6175717692       -0.0246940466        0.8985247131
 C        -8.9486630512        1.1908734595        1.6013233266
 C        -8.2764046278        2.1222404703        0.6989536838
 O        -8.5385167550        2.1557318713       -0.4510129222
 C        -6.9372023468        2.8961484905        1.2798561300
 C        -6.9902839768        4.3249467090        0.9337226757
 O        -6.8336064715        4.6635612305       -0.2325335126
 C        -7.1370959650        5.4963606944        1.9018430856
 C        -6.7989100070        2.6351937427        2.7569761443
 C        -5.8119368353        2.2432693135        0.4857684455
 C       -10.2178160097       -2.5720547807       -0.6228482737
 C        -8.0067099549       -2.5903385030       -1.7784476845
 C        -9.7870507521        2.0351846116       -6.7170770973
 C        -7.4210762513        2.8337579877       -6.9817570649
 C       -10.7802820420        7.6165755595       -3.2409366729
 C        -9.2617449116        6.7887857481       -1.3076024863
 C       -14.2662441600        4.0266197789        0.9932586089
 C       -14.2762485492        6.4995683987        1.2251305178
 C       -11.2997324891        6.8678686647        8.1948268481
 C        -9.2427304829        6.2511803447        6.7528091791
 H       -10.9794530414        4.1527985262        9.8251829779
 H       -11.4164479106        2.6397039388        8.7191339519
 H       -12.4510981241        3.9820556571        8.8042917528
 H       -11.0840556723        4.3852053342        4.6240247924
 H       -10.3288916841        5.7668330559        4.1568204614
 H       -12.7444113674        6.7348408848        3.4487097748
 H       -13.3581749831        5.0278641318        3.8906930783
 H       -13.8982153152        4.3655496253       -1.8341896862
 H       -12.3340759748        3.6329458630       -1.2292507015
 H       -12.4241428417        6.0050642088       -3.1694582505
 H       -12.3232362821        4.4205173047       -3.7199992924
 H        -8.0361816687        7.3745350272       -5.2863736148
 H        -9.7949081032        6.9177640356       -5.2117651140
 H        -7.2522838582        5.3759942676       -6.0725631831
 H        -8.5260326943        5.8106673124       -7.0966401722
 H        -9.8359545055        0.7823224174       -4.4698445773
 H        -9.8941545028        2.0478274651       -3.3135405087
 H        -7.7749571991        0.9473308014       -2.3370758512
 H        -7.9020832130       -0.3127814305       -3.6363298306
 H        -9.9502199086       -0.7201161059        1.6653194791
 H       -10.3530718058        0.2572471778        0.1460555410
 H        -8.2677203865        0.7953795179        2.3179432409
 H        -9.6808787279        1.7822362691        2.2271648721
 H        -6.6469220820        6.3403947479        1.4835777275
 H        -6.8618405904        5.4482780689        3.0017244732
 H        -8.2016660719        5.9045477487        1.9890857836
 H        -5.9387503327        3.1548327208        3.2641305708
 H        -6.6838384493        1.5503385708        3.0507031211
 H        -7.7030867568        2.9187899373        3.3579950575
 H        -4.9182925554        2.8080092951        0.7872476179
 H        -5.9396386219        2.3747326117       -0.5616033075
 H        -5.6454902271        1.1793565662        0.8259833661
 H       -10.4408336907       -3.2080823724       -1.4783755970
 H       -11.0184022051       -1.9374175406       -0.2517064360
 H        -9.9112379019       -3.2771605431        0.1808550673
 H        -7.7480247028       -3.5031302569       -1.1844689732
 H        -7.0968070191       -2.0323137075       -2.0636431726
 H        -8.5146060025       -2.9057721492       -2.7161066580
 H       -10.7293498890        2.2229492733       -6.2403477664
 H        -9.5904686279        0.9949050319       -6.5550815250
 H        -9.9408436848        2.2555525031       -7.7317100845
 H        -6.6677210453        3.4524011111       -6.4953979872
 H        -7.5352498870        3.1246646771       -7.9976829796
 H        -6.9125259475        1.8021015350       -6.9623350975
 H       -10.1981708961        8.5470042545       -3.4776135468
 H       -11.4908985443        7.8224574542       -2.4892326996
 H       -11.3796189878        7.4123928346       -4.1652168906
 H        -8.5710606163        7.5822585408       -1.4289251089
 H        -8.7184594697        5.8838260615       -1.0486834590
 H       -10.0690015698        6.9230605809       -0.6122491645
 H       -13.6017080529        3.1771963421        1.0546920650
 H       -14.6549513998        3.9360559040       -0.0379269863
 H       -15.1042196399        4.1427741690        1.6972613811
 H       -15.0311568367        6.5620983982        0.4034301588
 H       -13.6166832335        7.3455547252        1.1807594418
 H       -14.9256547811        6.4563773153        2.1017166251
 H       -11.9177859257        6.3706387976        8.9720080973
 H       -11.8328055101        7.7125082601        7.6868989242
 H       -10.5296644272        7.2520672254        8.8563444226
 H        -8.7606141385        5.5593195116        6.0713029263
 H        -8.6314328137        6.2092299493        7.6886725861
 H        -9.0527415136        7.2714903646        6.3856319457
 Na       -7.7456096964        3.6618966017       -2.0336485113
