117

 C       -12.0040855988        7.4221655341        1.0821300251
 C       -11.4765547032        6.0937888442        1.8115090210
 O       -11.0562205293        5.1486920935        1.1125872886
 C       -11.1492917146        6.0161503695        3.3520925268
 C       -12.1528560043        4.9442118561        3.8867900594
 O       -11.7800074826        3.8603196988        4.4103087364
 C       -13.6675125193        5.3756340843        4.0358482591
 C       -14.5953290679        4.1606739617        3.9312521252
 C       -15.0304688403        3.7984490665        2.4889691123
 O       -15.0583626099        4.6384106542        1.5999594795
 C       -15.3606373177        2.2000116564        2.2503277550
 C       -14.3100692235        1.2492475539        2.8498815574
 O       -13.3512958892        1.6057518110        3.4934330047
 C       -14.3475187672       -0.2358524424        2.3619838430
 C       -12.9910872352       -0.9589863365        2.2354491788
 C       -12.2795121542       -0.4000013532        0.9356383554
 O       -12.0250983933        0.7363998954        0.7402538077
 C       -11.7280593772       -1.4849302678       -0.2139679730
 C       -10.2188934366       -1.8515840729        0.4132371127
 O       -10.1493650562       -2.3123925720        1.5450973337
 C        -9.0190726456       -1.3446789406       -0.3782977897
 C        -7.9885705233       -0.8429095869        0.6866725493
 C        -8.4499258029        0.1349456924        1.7257048885
 O        -9.6022915214        0.1398445390        2.1465762311
 C        -7.3526223923        1.0001299431        2.2127685351
 C        -7.7542709433        2.3223544947        1.4027211655
 O        -8.8696868436        2.7907555585        1.6217903503
 C        -6.6109344322        2.8555986178        0.3824976286
 C        -6.5585052636        2.4836596168       -1.1221920374
 C        -5.6211497330        3.4977243907       -1.9179842840
 O        -4.7600581593        3.9793998889       -1.2577295186
 C        -5.7431816156        3.8452501333       -3.4319227937
 C        -6.9545345973        4.9542017986       -3.4791937850
 O        -7.4979919952        5.1183181077       -2.4409243170
 C        -7.2801082059        5.7556320327       -4.7797929046
 C        -7.0359357820        7.2895341122       -4.6607095169
 C        -7.9945722701        8.0573071500       -5.6491015499
 O        -9.0452390157        7.5677813620       -5.9958623725
 C        -7.4305373072        9.3895369484       -6.4569574820
 C        -6.2414740466        9.0722237500       -7.4133997185
 O        -5.4233541827        8.1491365984       -7.3333100608
 C        -6.2677158732       10.0474912682       -8.5713819114
 C        -8.6268351378        9.9038101272       -7.2809863404
 C        -6.8232048183       10.2889850542       -5.3722304312
 C        -4.4833425592        4.5917285584       -3.9146938623
 C        -6.0482001858        2.8906190066       -4.5020239288
 C        -7.6184900115        1.4007003740        3.7096339574
 C        -5.8482762564        0.5269864147        2.1381694849
 C       -12.5164263118       -2.8007604456       -0.2140207220
 C       -11.9229272269       -0.8339407496       -1.5205593020
 C       -16.8122300439        1.9911019730        2.7383936219
 C       -15.3204780978        2.0520639731        0.6155530799
 C        -9.6636748979        5.3321326187        3.5546073820
 C       -11.1952874323        7.2912104351        4.1639599738
 H       -11.4610670976        8.2551937562        1.4025535769
 H       -13.0515330974        7.4911336824        1.2264222329
 H       -11.8610210169        7.2042395942        0.0140829646
 H       -13.9352898824        6.0819383730        3.1770610617
 H       -13.8021090219        6.0375790466        4.9645082103
 H       -15.5781134713        4.4726652369        4.4489060791
 H       -14.2886180321        3.2794267356        4.4003925348
 H       -15.0402291949       -0.3782595185        1.5377337862
 H       -14.9517475354       -0.7265214610        3.1361042820
 H       -13.1796877130       -1.9771562770        2.2729917037
 H       -12.4048770271       -0.6933555539        3.1166525965
 H        -9.2688972044       -0.5193630071       -1.0969013680
 H        -8.6650035571       -2.2180683469       -1.0152163428
 H        -7.0021011352       -0.5873971695        0.2337863549
 H        -7.7234749672       -1.7609449766        1.2374017605
 H        -5.6685939148        2.3751633847        0.7426595386
 H        -6.6263888078        3.9522046691        0.3626180260
 H        -7.3734586370        2.8723173250       -1.6171387671
 H        -6.3167335637        1.5069856695       -1.4866588776
 H        -8.3695134391        5.5149348277       -4.8875103931
 H        -6.6373201690        5.4382364741       -5.6254307764
 H        -5.9588044675        7.4455326021       -4.8359785082
 H        -7.4136628398        7.6152358487       -3.6811763977
 H        -6.7151748475       11.0801590374       -8.3309872961
 H        -6.8822720130        9.7988073844       -9.4058059147
 H        -5.2814866626       10.0771271965       -8.9686801223
 H        -8.8547247294        9.4089469542       -8.1585127169
 H        -8.6380043817       10.8897507800       -7.5761221173
 H        -9.5411604401        9.8414354825       -6.7384240473
 H        -5.8701549854        9.8291170105       -5.1334967865
 H        -7.6277963738       10.2820800602       -4.5916347592
 H        -6.5251533600       11.2010144095       -5.8388675870
 H        -4.5423329913        4.7309381079       -5.0085984583
 H        -3.5945710805        4.2601645545       -3.4566149843
 H        -4.6437523615        5.6031178753       -3.4353098157
 H        -5.2198583233        2.2630808615       -4.6775474043
 H        -6.4260163835        3.3845014647       -5.3471836570
 H        -6.8765382461        2.1630349167       -4.1215968957
 H        -6.6391533823        1.5606187791        4.0647530652
 H        -7.9164504666        0.4612547664        4.2259757495
 H        -8.3483667858        2.1247219658        3.9257296007
 H        -5.2789914912        1.3483160528        2.5121857374
 H        -5.5236897876        0.1327928429        1.1515884687
 H        -5.7482619340       -0.2362395015        2.9388198685
 H       -13.5513205846       -2.9581721129        0.2080221812
 H       -11.8516385486       -3.5825608193        0.2247756208
 H       -12.6149662623       -3.1595662055       -1.2900477343
 H       -12.9804105195       -0.7352040723       -1.6817455611
 H       -11.4208756935       -1.3865692738       -2.3174830594
 H       -11.4725207788        0.2070107124       -1.6074092817
 H       -17.3798357434        2.9676813663        2.7522363366
 H       -16.9454737096        1.4008937896        3.7105725828
 H       -17.3833513999        1.4713148044        1.9086413861
 H       -15.7837599285        2.9223613049        0.1030987720
 H       -15.9408964323        1.2394886301        0.3546393420
 H       -14.3698315812        2.0018639255        0.1523950409
 H        -9.8229307023        4.4855618191        4.2213609571
 H        -8.9172042671        5.9987418961        3.9947829083
 H        -9.2688562746        5.0469545584        2.5595558664
 H       -11.3953100667        7.0083007151        5.2424643665
 H       -11.9136690713        8.0357166523        3.8208561851
 H       -10.1862023167        7.6384432792        3.9036423842
 Na      -11.1248101370        1.7614513633        2.7520031354
