117

 C        -7.3305451651       -5.7725507734        2.4137156610
 C        -6.5291118099       -5.0454068804        3.4693625204
 O        -5.4405903936       -4.5475035824        3.2158493707
 C        -6.9424872205       -4.9840205374        4.9585467103
 C        -7.0407546613       -3.6192509408        5.6121512927
 O        -6.1180859305       -3.1989688644        6.3246133231
 C        -8.3716234425       -2.7104520523        5.3789658468
 C        -8.0355089290       -1.2550658325        5.7463286427
 C        -8.1120876891       -0.1472838057        4.6971803961
 O        -8.2704690085       -0.4369507593        3.4981191263
 C        -7.9064535744        1.4059298332        5.1879528433
 C        -7.9144714187        2.2994094474        4.0129118669
 O        -6.8997625911        2.9198791683        3.7315022947
 C        -9.1674981147        2.5940906773        3.0886657956
 C        -8.5763154177        2.7025273192        1.6747182340
 C        -9.5678187935        3.3028323026        0.6493093458
 O        -9.4558570716        4.4599362134        0.3232605186
 C       -10.7358667667        2.3379807098        0.0282207695
 C       -12.0831517901        2.8467539894        0.7152226250
 O       -12.0593232163        3.1141397315        1.8952239218
 C       -13.3327711853        2.7383423591       -0.1080396622
 C       -14.2536373268        3.9409958282       -0.0809099341
 C       -13.4844087889        5.1402907389       -0.7863946210
 O       -12.3760959531        5.3623143010       -0.3798936006
 C       -14.0410887576        5.8974931143       -2.0157296797
 C       -13.0040929265        5.8130710432       -3.2258582382
 O       -11.8544500228        5.5829700075       -3.0613581021
 C       -13.6522305888        6.2269690436       -4.5886919225
 C       -12.8244753254        6.9705657157       -5.6501647927
 C       -12.6200714355        8.4694846654       -5.3322165629
 O       -13.2774690786        9.1467105611       -4.6157264274
 C       -11.2554686706        9.2482578462       -6.0882419094
 C       -10.0413787843        9.2781036997       -5.1104245089
 O        -8.9844861601        8.6926424698       -5.3180373478
 C       -10.0599328977       10.1125329510       -3.8419699412
 C        -8.8753970004        9.7833991882       -2.8691352083
 C        -8.9741086871        8.4042076712       -2.3438920851
 O       -10.1021827344        7.9255154718       -2.1558215655
 C        -7.6829670198        7.5656252021       -1.9488927979
 C        -7.5840555550        6.0967529348       -2.6108324664
 O        -8.4269403201        5.1536570582       -2.5272297353
 C        -6.2903393203        5.6551983075       -3.2926426032
 C        -6.2800262914        8.2356989285       -2.2781341457
 C        -7.7290498492        7.4628504226       -0.3657024575
 C       -10.9344167755        8.5075645497       -7.3423901134
 C       -11.6184397129       10.7520988211       -6.3469167388
 C       -15.4568966861        5.2845371666       -2.5035915619
 C       -14.2162219621        7.3973469825       -1.5141507726
 C       -10.7002159203        2.4971099131       -1.4976661819
 C       -10.5274346460        0.8949069683        0.4059184577
 C        -9.2184786463        1.5733458195        5.9878534509
 C        -6.6241994738        1.6329193568        6.0205310825
 C        -8.3365204476       -5.6502831342        5.2148543805
 C        -5.8630343947       -5.7463467327        5.8577410465
 H        -7.0528884435       -6.8241373179        2.5231144022
 H        -7.0459375421       -5.5034039970        1.4035747273
 H        -8.4093722126       -5.7285346766        2.5194710799
 H        -9.1624437870       -3.0797165724        5.9979272475
 H        -8.4880607980       -2.7712303991        4.3304395443
 H        -7.0547502064       -1.3625499714        6.1089039561
 H        -8.5659057601       -0.8524684669        6.6503571080
 H        -9.4378360108        3.6133756122        3.2749085829
 H       -10.1108988733        2.0351414637        3.1849858124
 H        -8.1310514828        1.6817243600        1.4637132766
 H        -7.7600741704        3.4483448532        1.7420681212
 H       -13.8528945330        1.8657822754        0.3787829530
 H       -13.0623546042        2.3046800608       -1.1105380914
 H       -14.4522876738        4.2513602100        0.9077788931
 H       -15.3391719918        3.7356371748       -0.3485216516
 H       -14.5513132853        6.8525789913       -4.2234566413
 H       -13.9864793913        5.4025475137       -5.2619049596
 H       -13.3465071127        6.8834406932       -6.6452583882
 H       -11.8992559286        6.5077695142       -5.8081117747
 H       -10.9640207264       10.0073464426       -3.2672927910
 H        -9.8864305247       11.1693686119       -4.1276372194
 H        -8.8833192828       10.6490307667       -2.1741726944
 H        -7.9076635900        9.8621751643       -3.3523750712
 H        -6.2914060236        5.8738821777       -4.3103788604
 H        -6.2379491107        4.5445651444       -3.1330828855
 H        -5.3976811766        6.2367482267       -2.9179914760
 H        -6.2173175296        9.3352819933       -2.1026210641
 H        -6.0605475068        7.9652449758       -3.3487981828
 H        -5.5242583229        7.7641275368       -1.6560203378
 H        -7.1477268900        8.2139386220        0.1409061555
 H        -7.2810165588        6.4610551311       -0.2119896903
 H        -8.5983658901        7.1571829528        0.1307598789
 H       -11.5055280916        7.6077412562       -7.5809994807
 H        -9.8747917999        8.2004678089       -7.3240537482
 H       -11.0256163565        9.1202645385       -8.1760110300
 H       -10.6326765925       11.2800567534       -6.5850083800
 H       -11.9947148320       11.1700038883       -5.4872986121
 H       -12.2810211540       10.7968501547       -7.1429545552
 H       -16.1771933827        5.3216831443       -1.7139492225
 H       -15.3769567532        4.2471024037       -2.8121075799
 H       -15.8682056106        5.9189060935       -3.2424450325
 H       -14.7272248832        7.4252718463       -0.5628927507
 H       -14.8534015034        7.8786317624       -2.1870143823
 H       -13.3438275981        7.9143208052       -1.4127004201
 H       -11.2787023488        1.7243045553       -2.0771016426
 H        -9.6413353954        2.3487624979       -1.8563856385
 H       -10.9951727024        3.5181409016       -1.8330565711
 H       -10.5712006198        0.6601794115        1.4814140156
 H        -9.6305260876        0.4733352871        0.0000426164
 H       -11.4440936320        0.2906328549        0.0128223756
 H        -9.1731714190        1.4512946926        7.0808315783
 H        -9.8781346296        0.8292879512        5.6198561864
 H        -9.7115069930        2.5868383082        5.7983438279
 H        -6.5200879135        0.9614833573        6.8831631133
 H        -6.6072082186        2.5911622105        6.4253853316
 H        -5.6796487347        1.6531965313        5.4732463237
 H        -9.1822486343       -5.1412910538        4.7848178019
 H        -8.4499800759       -5.6961016873        6.3237278696
 H        -8.3151511462       -6.6137401405        4.7626943671
 H        -4.9527047201       -5.3664218505        5.5291003720
 H        -5.9218154573       -6.7823640494        5.6530108793
 H        -5.9928670753       -5.7224662993        6.9103005842
 Na      -10.2890206759        5.9662306233       -1.1048476092
