117

 C        -9.0131259448        4.0831298482        6.7930787539
 C        -9.4908492305        5.0382568625        5.7111632055
 O        -9.2614332401        4.6888967505        4.5380844073
 C       -10.2825882504        6.3808277472        5.9670243899
 C       -11.6663588272        6.4405757558        5.1070834295
 O       -12.6958676277        6.6659793710        5.7065396605
 C       -11.5491042741        6.3283080074        3.5821075190
 C       -12.8383867155        6.3229820819        2.7806099998
 C       -13.0070549105        5.0939223976        1.8139725830
 O       -12.5456067607        3.9940271525        1.9574431864
 C       -13.9053376667        5.4250239986        0.4165559732
 C       -13.0491565406        6.4870717397       -0.3381458338
 O       -12.9682803568        7.6187063144        0.1171027226
 C       -12.2110246367        5.9006775836       -1.4310503017
 C       -11.1258552511        6.8535399361       -1.9096827363
 C        -9.7809075100        6.1503066731       -2.2650116173
 O        -9.5382344850        5.0580035164       -1.6983039008
 C        -8.7192119798        6.8126064334       -3.2610688319
 C        -7.8755744089        5.7670573369       -3.8863747159
 O        -7.0683774613        5.1331202894       -3.1574756835
 C        -7.7622334838        5.6037690926       -5.4020982694
 C        -7.6695875806        4.1191242473       -5.7594504717
 C        -8.9443105214        3.3791090083       -5.3181866483
 O        -9.7920129005        4.0368229292       -4.7333444133
 C        -9.1208750667        1.8271115168       -5.5235487509
 C        -8.9593548819        1.2157425284       -4.0211686806
 O        -8.0888759844        1.5962045818       -3.2913752635
 C        -9.7331685472       -0.0163795956       -3.5614944989
 C        -9.4892276031       -0.2749020550       -2.0542628163
 C       -10.3882825416       -1.3927993745       -1.5006741699
 O       -11.1532069541       -1.9965616666       -2.1954955224
 C       -10.2464011479       -1.8191000692        0.0102669979
 C        -9.3464360456       -0.7744641869        0.7592873474
 O        -8.1754745200       -0.7559517736        0.4378890768
 C        -9.9089420976        0.1837487878        1.7603189185
 C        -8.9705876060        1.3099514119        2.3589087359
 C        -8.2428428522        2.2704531682        1.2419860560
 O        -8.5796021470        2.2033208209        0.0907376212
 C        -6.8121809911        2.9519134154        1.7077255619
 C        -6.6157397660        4.3465235384        1.0397511496
 O        -6.3311778323        4.4001508855       -0.1678102865
 C        -6.6606237333        5.6057906198        1.8048586344
 C        -6.8437834990        3.1743327364        3.1813073559
 C        -5.7547252257        1.9542425130        1.1805387960
 C       -11.7048790080       -1.8822760878        0.5519004721
 C        -9.5065702779       -3.1866573009        0.2065574298
 C       -10.4442453217        1.6057726644       -6.2276149829
 C        -8.0065051048        1.1859534756       -6.3392185092
 C        -9.4590472378        7.7492056471       -4.3604885438
 C        -7.9281255212        7.6937266661       -2.3213137777
 C       -14.2086992922        4.1109638542       -0.3585556252
 C       -15.3154493642        6.0036541972        0.8637117141
 C       -10.7373111784        6.6522621302        7.4748392529
 C        -9.3328060017        7.5085641658        5.4730095749
 H        -8.1689373891        4.6066596045        7.2539981767
 H        -8.6016873053        3.1365891161        6.3503215430
 H        -9.7988896301        3.8358544451        7.5994696265
 H       -10.9810451050        5.3621754105        3.4120109583
 H       -10.8187965321        7.0310180416        3.2396957594
 H       -12.9485857758        7.2761567125        2.1999728790
 H       -13.6655379118        6.2012309726        3.4763033092
 H       -12.9159385616        5.6423908037       -2.2487831922
 H       -11.7671521239        5.0010606581       -1.0442563751
 H       -10.8928049795        7.5050983719       -1.0501727149
 H       -11.3529996196        7.5505782296       -2.7109724580
 H        -6.7974009391        6.0946755990       -5.7435428960
 H        -8.5626182335        6.0340780042       -5.9206471081
 H        -6.7815227378        3.6364376793       -5.2661282820
 H        -7.3982096934        4.0485463934       -6.7955079156
 H        -9.3649426129       -0.8404029214       -4.2298656192
 H       -10.7982847060        0.0834123584       -3.8268214513
 H        -9.7699866365        0.6491279594       -1.5866593677
 H        -8.4786063160       -0.5659146538       -1.7936810577
 H       -10.2580235324       -0.4286887157        2.6227228293
 H       -10.7882292904        0.6241962280        1.3369814397
 H        -8.2166039520        0.7772979953        2.8836507971
 H        -9.5214609832        2.0122880786        3.0635605566
 H        -7.4675257964        5.5391753084        2.6082456206
 H        -6.8845669382        6.4123568919        1.0567438015
 H        -5.7128597321        5.9935487484        2.2595090342
 H        -5.9404216273        3.6722816339        3.5959274095
 H        -6.9219569072        2.2163194922        3.6930756629
 H        -7.7220026208        3.7483025297        3.4139256937
 H        -4.7499565022        2.2693125401        1.4849476528
 H        -5.7648113184        1.9585010109        0.0950709458
 H        -6.0674598752        0.9795006025        1.4491873044
 H       -12.3801876643       -2.5953997066        0.0538125724
 H       -12.1551106999       -0.8966916300        0.5356817695
 H       -11.6468626088       -2.2330718121        1.5894920740
 H        -9.6775171454       -3.7261075256        1.1233756792
 H        -8.4568563264       -3.2095105024       -0.0437887488
 H        -9.9657570683       -3.8366544721       -0.6031077559
 H       -11.2235004583        2.0579804077       -5.5889160780
 H       -10.6866843719        0.5162211428       -6.1701825722
 H       -10.5275344501        2.0023866404       -7.2412255518
 H        -6.9660370546        1.5650615944       -6.2319637736
 H        -8.2091650995        1.4013210387       -7.4045890332
 H        -7.9858987510        0.1079059361       -6.1650082712
 H        -8.7311738132        8.3084048071       -4.9832376207
 H       -10.1104422158        8.5885192489       -3.9470219947
 H       -10.1152554037        7.1763015025       -5.0818410745
 H        -7.0267913747        8.1398870475       -2.7575009648
 H        -7.5646806804        7.0430154471       -1.5003116015
 H        -8.4160560878        8.5714247124       -1.9346561056
 H       -13.2772774753        3.5531684431       -0.5636628004
 H       -14.6866442108        4.1309735584       -1.3282875804
 H       -14.8464320758        3.4650694072        0.2063681243
 H       -16.0738076026        6.0987605134        0.1032931088
 H       -15.3490709254        6.9857425068        1.2870409894
 H       -15.5432549378        5.3683406233        1.7162858657
 H       -11.4623264166        5.9496346408        7.7969086581
 H       -11.2520909852        7.6524289276        7.5521471437
 H        -9.8779616545        6.7654606300        8.1654968670
 H        -8.9234791884        7.2270275691        4.5450074804
 H        -8.5113675604        7.6163843802        6.1711338534
 H        -9.9600061870        8.3714189066        5.4420288984
 Na       -7.8182400683        3.5405383335       -1.7366987985
