117

 C        -9.2607645575        4.2123247478        6.9382858847
 C        -9.6261162127        5.0390198476        5.7343999410
 O        -9.2774903394        4.7677645723        4.6107049179
 C       -10.3232100632        6.3906809904        5.9748946373
 C       -11.5796932047        6.4213162372        4.9964794098
 O       -12.6719728493        6.4133957211        5.4915381138
 C       -11.4271648457        6.3029576753        3.4465235912
 C       -12.8940468336        6.2985399979        2.8988968738
 C       -13.0273809348        5.0324528306        1.9426575637
 O       -12.5463730368        3.9517959481        2.1928227559
 C       -13.7459559557        5.3188870253        0.5750251567
 C       -13.0145393593        6.4219900612       -0.1216800642
 O       -13.2284416423        7.5935385793        0.1058607727
 C       -12.1483243501        5.9707639426       -1.3526008204
 C       -11.1024110664        7.0050254142       -1.7998029994
 C        -9.7685756584        6.2257626617       -2.2533819447
 O        -9.6319988857        5.1366252422       -1.8504627182
 C        -8.7027846571        6.9233265221       -3.3222885321
 C        -7.7605139749        5.8127044454       -3.9044949745
 O        -7.0897400882        5.1830063731       -3.1455941857
 C        -7.6441975387        5.5436278356       -5.4034780051
 C        -7.6888511811        3.9770873065       -5.6580718958
 C        -9.0304665441        3.3831977315       -5.3696796808
 O       -10.0110801259        4.0275791267       -5.1043717066
 C        -9.1976974782        1.8194135516       -5.4823373439
 C        -8.9214932430        1.3466300879       -4.0860275688
 O        -8.0527114780        1.9777878540       -3.4554941432
 C        -9.6049786910        0.0553598281       -3.6705243750
 C        -9.3995733231       -0.3276909162       -2.2193002175
 C       -10.3807471239       -1.3926873146       -1.6993362793
 O       -11.2221620509       -2.0051808174       -2.3369674427
 C       -10.1646897819       -1.7338097270       -0.1631573310
 C        -9.3080742562       -0.6801887000        0.6288699831
 O        -8.1041266261       -0.6035447413        0.4643031222
 C        -9.9241905232        0.2220015159        1.7036855181
 C        -8.8573223350        1.1145548454        2.2984346780
 C        -8.3122779041        2.1454585940        1.3038932237
 O        -8.6926080662        2.2037322591        0.1534763800
 C        -6.9480317327        2.9376827408        1.6643620657
 C        -6.8263812253        4.3675484202        1.1605828685
 O        -6.4648158475        4.5354709656        0.0276438762
 C        -6.9872202244        5.6039838917        2.0603371718
 C        -6.7242418187        2.8894383957        3.2059834573
 C        -5.7922280021        2.1000475023        1.0835243757
 C       -11.5538698650       -2.0132514751        0.4818798894
 C        -9.4007964625       -3.0778748969       -0.0969146871
 C       -10.5835905699        1.4149106185       -6.0294081146
 C        -8.0495214178        1.1353965828       -6.3682663735
 C        -9.5152993565        7.7300175038       -4.3380067844
 C        -7.8623255985        7.8655789130       -2.3183498261
 C       -13.8404465694        4.0544466401       -0.2313925721
 C       -15.2167505772        5.7824275480        0.8932802955
 C       -10.6857911029        6.5786608814        7.4909679513
 C        -9.2299682230        7.5754467347        5.6047351544
 H        -8.6552055523        4.6731952328        7.7347501065
 H        -8.6348898768        3.4023479087        6.5480006529
 H       -10.1363480817        3.8347885857        7.2721299249
 H       -10.9012268404        5.4610858784        3.0594370290
 H       -10.7662827415        7.1781489944        3.1537809255
 H       -13.0142888458        7.1764983631        2.2698323573
 H       -13.6696298085        6.3077428604        3.7372225410
 H       -12.7556666641        5.8092202818       -2.2231728031
 H       -11.6193454552        5.0038869938       -1.1089200737
 H       -10.7976953883        7.6940274972       -1.0129667599
 H       -11.4238621085        7.6017663234       -2.6694349968
 H        -6.6575743460        5.8728193704       -5.6669065531
 H        -8.3795944648        6.1910047478       -6.0413641056
 H        -6.9458746043        3.5318644790       -5.0212951909
 H        -7.3322046010        3.7519878026       -6.6989389437
 H        -9.1706633048       -0.6548808734       -4.3592200877
 H       -10.6513950407        0.1586616199       -3.9593029361
 H        -9.5479426869        0.6069277731       -1.6557242925
 H        -8.4013056162       -0.7587239508       -2.0795040955
 H       -10.4305371086       -0.3037360283        2.4847338859
 H       -10.6528665785        0.9332349973        1.2414748158
 H        -7.9584437462        0.4704479961        2.5645906279
 H        -9.2469696433        1.6705738214        3.1083458590
 H        -7.8957456139        5.7925411461        2.5097775068
 H        -6.4954522937        6.4485967790        1.5745420461
 H        -6.2957485235        5.4464402843        2.8949587047
 H        -5.8593492532        3.3960773318        3.4839034956
 H        -6.5916184269        1.8554221695        3.4253759937
 H        -7.5956513456        3.2618134626        3.7469381891
 H        -4.8983632209        2.6130879629        1.3690236937
 H        -5.8201729706        1.9479760882       -0.0073634138
 H        -5.9702316485        1.0967854576        1.5110276202
 H       -12.1372423694       -2.3637779730       -0.3710147438
 H       -12.1339758416       -1.1887801048        0.9167515113
 H       -11.5329418274       -2.8182771928        1.2100115236
 H        -9.1987934878       -3.2427759909        0.9554903855
 H        -8.4372025206       -3.0028236823       -0.5921161563
 H        -9.8117316855       -3.9524246332       -0.4165790774
 H       -11.4407450545        1.8335435094       -5.4922806535
 H       -10.7029567198        0.3329973240       -6.0577255659
 H       -10.6078542625        1.7352192927       -7.0986608564
 H        -7.1572967106        0.9789408907       -5.8040309715
 H        -7.7561174577        1.6628463460       -7.2638899053
 H        -8.3922827787        0.1377008205       -6.5742955065
 H        -8.8751372626        8.0747830848       -5.1589845649
 H        -9.9059134851        8.6342495637       -3.9168050153
 H       -10.3446459345        7.2223142049       -4.7687929661
 H        -6.8425594140        8.0919909366       -2.6617237212
 H        -7.7421794706        7.4789157098       -1.3291235557
 H        -8.2435259734        8.9080865617       -2.3277011267
 H       -12.9273571420        3.4924714232       -0.1841792207
 H       -14.1827331235        4.0312027713       -1.2619907779
 H       -14.6254452345        3.4154601861        0.1797345217
 H       -15.5778236782        6.4014543366        0.1122421084
 H       -15.3582558578        6.4214584732        1.7742310718
 H       -15.7737152537        4.9457410019        1.2486032004
 H       -11.6134031988        5.9951813070        7.6642011651
 H       -10.9467722770        7.5593296799        7.7408158836
 H        -9.8927228940        6.3549615630        8.1587187658
 H        -8.8775193497        7.3330324117        4.5771271760
 H        -8.3479910966        7.3918821703        6.2097500280
 H        -9.7146043764        8.5472648981        5.7816280385
 Na       -7.7161492174        3.4749246497       -1.5903155629
