117

 C        -9.4057146550        4.1771632605        6.9967765986
 C        -9.5238648856        5.0866938840        5.7677673906
 O        -9.1948245640        4.7141329937        4.6433702227
 C       -10.2838315052        6.4265061654        5.9414795621
 C       -11.5957849877        6.4796474835        5.0027758442
 O       -12.6706477276        6.2813787265        5.5290781716
 C       -11.4745497839        6.3561969480        3.4953922602
 C       -12.8413088670        6.2548928423        2.8809794749
 C       -12.9956286315        5.0132463157        1.9269974893
 O       -12.5187774006        3.9603589471        2.3050433337
 C       -13.7424612627        5.2453090467        0.6333993743
 C       -13.0285673286        6.4811393298       -0.1909149412
 O       -13.2382924266        7.6403759240        0.0749520847
 C       -12.1128358732        6.0487110653       -1.3080658251
 C       -11.0096901008        6.9901442338       -1.8088648659
 C        -9.7374128691        6.2482361634       -2.3215759308
 O        -9.5210582065        5.0671425188       -1.8924722301
 C        -8.7815430605        7.0008115927       -3.2512044600
 C        -7.8115873458        5.8654118519       -3.8064255389
 O        -7.0868702484        5.1818454040       -3.0559986207
 C        -7.7257275088        5.5423428762       -5.3311178001
 C        -7.6726469074        3.9970794492       -5.6707056757
 C        -9.1067565496        3.4137218006       -5.5926185406
 O       -10.1111047032        4.0447908647       -5.3459281589
 C        -9.1538725583        1.8285564667       -5.6137590310
 C        -8.9055977538        1.3772792478       -4.0716859019
 O        -8.2108291455        1.9991395827       -3.2909627094
 C        -9.5489917635        0.0783838451       -3.6432765480
 C        -9.2667130108       -0.3261672273       -2.2024837114
 C       -10.2899318507       -1.3185861946       -1.6134302499
 O       -11.0797605592       -1.8549955599       -2.3393766178
 C       -10.1070171632       -1.7355975089       -0.1381013859
 C        -9.3010348643       -0.6517505069        0.6042563788
 O        -8.1057592299       -0.6107922378        0.3651290106
 C        -9.9552185830        0.3171365352        1.5599528732
 C        -8.8728625700        1.1450146657        2.2530490270
 C        -8.2471577149        2.1272077162        1.2795908382
 O        -8.7820323645        2.3333423656        0.2066062219
 C        -6.8811778420        2.7723345131        1.7282666283
 C        -6.8752575526        4.3406936510        1.2517473420
 O        -6.7137107838        4.6248271566        0.0906258675
 C        -7.1581601474        5.4704259771        2.2555925348
 C        -6.7348061521        2.7496036667        3.3465990485
 C        -5.7259142435        2.1317458928        0.9640111179
 C       -11.5061664795       -2.0850041975        0.4890836601
 C        -9.3340293983       -3.0837671744       -0.3428589616
 C       -10.5839018684        1.3974680867       -5.9528583287
 C        -8.0789844746        1.2409563183       -6.5523752275
 C        -9.4574399118        7.7221391032       -4.4113148201
 C        -7.8165047080        7.8856566694       -2.4097353450
 C       -13.7011184669        3.8272640098       -0.0559818447
 C       -15.2093078985        5.7434670076        0.9496434035
 C       -10.7563140537        6.5686498815        7.4298953287
 C        -9.2573313970        7.5611462691        5.5642314976
 H        -8.8234836023        4.5924962837        7.7560157532
 H        -8.7957871118        3.3242135479        6.6971186981
 H       -10.3959619538        3.8827370075        7.3070055568
 H       -10.9689690328        5.3995300570        3.2510792424
 H       -10.7707702061        7.1138437892        3.1463189026
 H       -13.1112081888        7.2232331308        2.4019650017
 H       -13.5293705535        6.0703335461        3.6742315952
 H       -12.6821029719        5.7694488576       -2.1948359369
 H       -11.6286231565        5.1098137180       -0.9219613620
 H       -10.5538063694        7.5469649624       -0.9741296166
 H       -11.3319932136        7.7090506584       -2.6129149056
 H        -6.8737205076        6.0664241414       -5.7125135059
 H        -8.5775848356        5.9977339538       -5.8220674662
 H        -7.0014820997        3.4930008748       -4.9369220925
 H        -7.2059664924        3.8528317801       -6.6572285400
 H        -9.3050332219       -0.6801987867       -4.3605393398
 H       -10.6047727043        0.3681985011       -3.7605246553
 H        -9.2656383726        0.6387680343       -1.6530061146
 H        -8.2435713437       -0.8442622526       -2.1907313077
 H       -10.4860381064       -0.2397345696        2.3390557007
 H       -10.6993361854        1.0046946856        1.0933916236
 H        -8.0512471875        0.4664335201        2.4086548422
 H        -9.2536631106        1.6235155684        3.1762530298
 H        -8.1800298227        5.3326551582        2.3840909997
 H        -6.8891554088        6.4153269300        1.9064120936
 H        -6.8069599512        5.3850132894        3.2461708874
 H        -5.8294453312        3.3661792896        3.4537426495
 H        -6.6555947361        1.7676734408        3.8323563771
 H        -7.5738981852        3.3501819764        3.7574282027
 H        -4.7783487061        2.6756474815        1.1169774625
 H        -6.0099290052        2.1108980953       -0.1287015861
 H        -5.7652155337        1.1032444004        1.2251354471
 H       -12.0795373668       -2.6279393577       -0.2814827472
 H       -12.1191376377       -1.2036111137        0.6895928560
 H       -11.4500937198       -2.6118694227        1.4377848096
 H        -9.0031093512       -3.4151101433        0.6198957526
 H        -8.4471383123       -3.0325476765       -0.9787666967
 H        -9.9170681427       -3.9536386746       -0.6708162623
 H       -11.2073146318        1.8651318011       -5.2126044838
 H       -10.7829244692        0.3377680881       -6.0335996022
 H       -10.8564145251        1.7786017154       -6.9106633060
 H        -7.1373658987        1.0820409629       -6.0102587479
 H        -7.8740783938        1.8830694563       -7.4414596927
 H        -8.3959151391        0.2980773417       -6.8371008716
 H        -8.7497635918        8.0698339339       -5.0833987109
 H       -10.0473022990        8.5687987807       -4.0705498705
 H       -10.1351715324        7.1117876615       -4.9096224562
 H        -6.9690987761        8.2489485514       -3.0214015004
 H        -7.4109969397        7.4577013555       -1.5396399572
 H        -8.2641863255        8.8618154817       -2.2363098567
 H       -12.6481232107        3.4567841782       -0.1340534661
 H       -14.1735244527        3.7046152826       -1.0283456340
 H       -14.2452796533        3.0722599879        0.4381848605
 H       -15.4526538030        6.2581801699        0.0369159816
 H       -15.4398805265        6.4532520833        1.7541208219
 H       -15.8774280569        4.9130910422        1.2577735937
 H       -11.4448468173        5.7824115418        7.5570803701
 H       -11.2950127566        7.4707228995        7.7615714950
 H        -9.9028472251        6.4945316713        8.0902283434
 H        -8.9479983149        7.3907387880        4.5329445575
 H        -8.3327828949        7.4063262734        6.1785798705
 H        -9.7798014111        8.4872964245        5.8033265051
 Na       -7.7546523124        3.4346703723       -1.5793228601
