117

 C        -8.9898656920        4.2133483139        6.7830082069
 C        -9.3199570582        5.1171330325        5.6111792636
 O        -8.9312684444        4.7742589045        4.5135754776
 C       -10.2527222318        6.3408686170        5.6920136049
 C       -11.7078280725        6.1373347121        5.0731407975
 O       -12.6903009666        6.6211314536        5.5966567553
 C       -11.8995874822        5.3137994290        3.7408934312
 C       -13.1803227192        5.9240731677        3.0244295661
 C       -13.1171044964        5.3612082518        1.4912561438
 O       -12.5651557206        4.3096800373        1.2613914092
 C       -13.8774406228        6.1944820494        0.3609449933
 C       -13.0267747545        6.7110724287       -0.8843520336
 O       -12.7220024781        7.8742731916       -1.0328524921
 C       -12.4909266296        5.5169213764       -1.7692805371
 C       -11.3641756877        6.0217779231       -2.6984369503
 C        -9.8863318873        5.8632140440       -2.3031732821
 O        -9.5603232870        4.9718460583       -1.5917255237
 C        -8.8468905943        6.7109452233       -3.0600232517
 C        -8.1378661714        5.7214165868       -3.9731829249
 O        -7.1338153850        5.1742764805       -3.5994732934
 C        -8.6017664659        5.5930551853       -5.4465106857
 C        -8.2203218996        4.1128529029       -5.8897467605
 C        -8.9520553393        3.1751286927       -4.9284062090
 O        -9.4322736396        3.5982710592       -3.8708417584
 C        -8.8901986412        1.6002372652       -5.1644566534
 C        -8.5627272860        1.0592608639       -3.6951641970
 O        -7.5971944309        1.5022220487       -3.0953294002
 C        -9.5634654008        0.0581733274       -3.1108733363
 C        -9.4040754937       -0.2989752632       -1.6092215160
 C       -10.5657703575       -1.2162936312       -1.1308111982
 O       -11.3014639117       -1.8830589334       -1.8283714323
 C       -10.6373682159       -1.5266577369        0.4619096368
 C        -9.5579935799       -0.5983012760        1.2118262688
 O        -8.3686529721       -0.8582685836        1.2970106310
 C       -10.1141053222        0.7813737806        1.7806078145
 C        -9.0589294243        1.7808112819        2.2193608961
 C        -8.1702832866        2.3907728474        1.1390968443
 O        -8.5466880852        2.3579495777       -0.0253466501
 C        -6.6360192489        2.7643077330        1.4669375618
 C        -6.1079741746        3.9552035685        0.6471921642
 O        -5.8666410417        3.8755267398       -0.5384044256
 C        -5.7710145662        5.2554866234        1.4131477623
 C        -6.5226708897        3.0241724660        3.0005718841
 C        -5.7532559770        1.5861424085        0.9759345626
 C       -12.0198280386       -1.3590166628        1.0635003349
 C       -10.1105189864       -2.9381660819        0.7061875551
 C       -10.2008545675        1.0453086726       -5.7619436464
 C        -7.7881520027        1.1673007944       -6.1273584911
 C        -9.4599401568        7.8497344478       -3.9175778485
 C        -7.8193425110        7.2380940246       -2.0696033010
 C       -14.9993546448        5.1980252890       -0.1845094888
 C       -14.5931681981        7.4392306863        0.8920696542
 C       -10.5585142795        6.7785375843        7.1248066097
 C        -9.8080633538        7.5340681555        4.7749584011
 H        -8.3729904344        4.7640346153        7.5313411181
 H        -8.5847717453        3.2483574512        6.4430851489
 H        -9.8459297389        3.9782747292        7.2919864877
 H       -11.9213217557        4.1940748756        3.8603190703
 H       -11.1587314618        5.5368642783        3.0152007355
 H       -13.2080139675        7.0867441124        3.0157826308
 H       -14.1093057949        5.4914113177        3.3682612289
 H       -13.3315080110        5.1931745804       -2.4332678443
 H       -12.2265697640        4.6445081964       -1.1643394473
 H       -11.6735232626        7.0359810432       -2.9354245908
 H       -11.3953643449        5.5935208132       -3.7091524641
 H        -8.0124452852        6.2165837417       -6.1298721269
 H        -9.7140686406        5.7379004871       -5.6840469855
 H        -7.1356649424        3.9063948792       -5.8550142778
 H        -8.4827909134        3.9230350405       -6.9167148536
 H        -9.5735731133       -0.8404553121       -3.7527504816
 H       -10.5703613566        0.4687769751       -3.2075635885
 H        -9.2188106436        0.4974936050       -0.9117767008
 H        -8.4720036517       -0.8593705664       -1.5324503637
 H       -10.8384653723        0.6138042553        2.6151666081
 H       -10.7106366065        1.2678865097        1.0105132732
 H        -8.5020990663        1.4142469050        3.0366396551
 H        -9.4877398446        2.6972023420        2.7527341435
 H        -6.7219972631        5.4969193053        1.7324909903
 H        -5.5762534850        6.0915143206        0.7502137066
 H        -5.1199433575        5.2194020582        2.2920359580
 H        -5.5804548495        3.3709196403        3.4407550117
 H        -6.7832658291        2.0904509770        3.4682595493
 H        -7.2977636878        3.7263542201        3.4293692081
 H        -4.7827074206        1.6903322535        1.4546032238
 H        -5.6653635620        1.5670631830       -0.1424550698
 H        -6.0483293472        0.6550058777        1.4173242865
 H       -12.7923611948       -2.0574370780        0.6636686372
 H       -12.4294849372       -0.3649748858        0.8559938797
 H       -12.0280168520       -1.4084577804        2.1549507579
 H       -10.6233189970       -3.4628146673        1.5072079511
 H        -9.0104789955       -2.9810834139        0.9521308737
 H       -10.1998691352       -3.5122862384       -0.1827283353
 H       -10.9435844005        0.9878595185       -4.9949267598
 H       -10.0526942573        0.0457273810       -6.1337234036
 H       -10.5961462930        1.5533608941       -6.6064395663
 H        -6.7963284327        1.5450212119       -5.9079352423
 H        -8.0402848821        1.4195194103       -7.1694023321
 H        -7.6914832122        0.1493629191       -6.2316240167
 H        -8.7665785727        8.2466358037       -4.5919620653
 H        -9.8551486243        8.6736208186       -3.3519080785
 H       -10.2485170468        7.5203195404       -4.4958452951
 H        -6.8607705081        7.3940360292       -2.5829873873
 H        -7.6077061299        6.6505857019       -1.2443368187
 H        -8.1668813666        8.1324897638       -1.5568969500
 H       -14.4787021178        4.2484950382       -0.4953974722
 H       -15.5040826961        5.6009232702       -1.0868581585
 H       -15.7086155395        4.8864757426        0.5421275544
 H       -15.4735812255        7.6303414232        0.3577514856
 H       -13.8983170503        8.2566479889        1.0788344672
 H       -15.0697022034        7.1675892397        1.8711975258
 H       -11.0097548171        5.9735962145        7.6764849495
 H       -11.3379923060        7.5224537526        6.9910290438
 H        -9.7537051164        7.1505227650        7.7434107723
 H        -9.8865565918        7.1935660391        3.7495637138
 H        -8.7820309167        7.8109020065        5.1175996055
 H       -10.5112325328        8.3515575262        4.9506957896
 Na       -7.5522668785        3.4739858049       -1.9559951053
