117

 C       -11.8200389962        7.7050437197        1.4226422391
 C       -11.5822554159        6.2112109064        1.9212729164
 O       -11.7477920617        5.1688094603        1.2758418542
 C       -11.1471994018        6.0135911167        3.4293141403
 C       -12.2344530519        5.0394371451        3.7883982375
 O       -11.9983618941        3.8269944880        3.9648874765
 C       -13.6776084210        5.5426211708        3.8982273351
 C       -14.6680121829        4.3591964857        3.8878373904
 C       -14.8635376999        3.8065328292        2.4724572269
 O       -14.6772380515        4.4893859158        1.4561642209
 C       -15.3185705197        2.3401585166        2.3140730410
 C       -14.2730667885        1.2564506045        2.8778299353
 O       -13.2549927771        1.6144189441        3.3955357723
 C       -14.4656590876       -0.3161397574        2.7067305564
 C       -13.1294927530       -1.0178729826        2.4105592539
 C       -12.2763319536       -0.2708290019        1.1932296516
 O       -11.9733633844        0.8912073828        1.1251362207
 C       -11.9363383251       -1.3560495135        0.0261531854
 C       -10.5058649604       -1.9922089008        0.5455641034
 O       -10.5232615555       -2.7996526013        1.4259796768
 C        -9.1882733462       -1.4329568425       -0.0575393805
 C        -8.0078820077       -0.9979669539        0.8328120318
 C        -8.4768992283        0.2353345307        1.6158748345
 O        -9.6416657109        0.2658953469        1.9455310158
 C        -7.5033014934        1.3187234483        2.0929675191
 C        -7.7464532396        2.6662105554        1.3013400102
 O        -8.7492366603        3.2538154840        1.7082083471
 C        -6.8553583266        3.1556139789        0.1575234787
 C        -6.6434100892        2.3230709050       -1.1259410128
 C        -5.4296886216        3.1575083792       -1.8481926083
 O        -4.3112505385        3.0435423864       -1.4375691756
 C        -5.6097068952        3.8319208507       -3.4553714513
 C        -6.7762918378        4.9864986134       -3.5588921978
 O        -7.3221705617        5.4982162657       -2.6220940650
 C        -6.9192298368        5.4792463185       -5.0228007461
 C        -6.9532269765        7.0805158918       -4.9720944128
 C        -7.8362309364        7.7255331206       -6.1397710410
 O        -8.5358152152        7.0559367927       -6.8122123853
 C        -7.5494031060        9.2309751453       -6.4359538610
 C        -6.1961060550        8.9086073065       -7.4656935442
 O        -5.4968509419        7.9533652614       -7.1606712971
 C        -5.8078993407        9.6743192054       -8.8363716639
 C        -8.8039298953        9.8306721822       -7.0569573704
 C        -6.9103335884       10.0674648740       -5.3110647132
 C        -4.2321555689        4.4238727995       -3.6579685307
 C        -5.8740217738        2.5822723777       -4.2928851670
 C        -7.9487384700        1.3907469824        3.6988381647
 C        -5.9991521201        0.6374839764        2.3599678127
 C       -12.9633013753       -2.5370753307       -0.1336028509
 C       -12.0992431553       -0.6771501376       -1.3489881566
 C       -16.5588101841        1.9227395999        3.1343053954
 C       -15.7427723692        2.0122454597        0.8434794810
 C        -9.5716018086        5.5539068197        3.5327221389
 C       -11.3138597724        7.3971497089        4.2075982524
 H       -10.8820321610        8.2168021731        1.4826764078
 H       -12.6209996694        8.1269892670        2.0929553998
 H       -12.1812214987        7.6475737927        0.3907559355
 H       -13.8231959167        6.0673815045        2.9312250547
 H       -13.8663022567        6.3225611434        4.5649186123
 H       -15.7004063783        4.8017561769        4.2824923592
 H       -14.4849904979        3.5239330541        4.5036111970
 H       -15.3203161744       -0.5369216947        2.0249675337
 H       -14.8567180844       -0.7274844732        3.6439375761
 H       -13.4201448836       -2.0819245066        2.3010131618
 H       -12.4833431166       -0.8810578000        3.3644071034
 H        -9.4242159667       -0.5617032271       -0.5901177404
 H        -8.9217287632       -2.0966379482       -0.8965909672
 H        -7.1003404785       -0.7766278456        0.1999656361
 H        -7.7055190637       -1.7764850927        1.4091781748
 H        -5.7948352586        3.0767868825        0.5901866023
 H        -7.1226591233        4.1270045698       -0.1877196495
 H        -7.6034944504        2.0119837228       -1.7041305316
 H        -6.1307068635        1.3148198282       -0.8101137516
 H        -7.9127175702        5.3109802563       -5.4426368707
 H        -6.1262338422        5.0618020255       -5.6252178055
 H        -5.9401406516        7.3725120303       -5.2272125792
 H        -7.3519491625        7.3890277794       -4.0270003617
 H        -5.7190503849       10.7887594088       -8.7301494062
 H        -6.5403691861        9.5439935746       -9.6822112659
 H        -4.8445241352        9.4028884593       -9.1318828673
 H        -8.9062013056       10.9206264131       -7.0324683897
 H        -9.8105763629        9.6443574822       -6.6205489391
 H        -8.9624119111        9.7305352613       -8.1560638765
 H        -6.1231740738        9.3988995080       -4.9482040785
 H        -7.7086405379       10.0020707669       -4.5999227726
 H        -6.5119005529       11.0435928246       -5.6160579378
 H        -4.0991594929        5.1242993762       -4.4489451011
 H        -3.5641707561        3.5549587050       -3.7633266650
 H        -4.0846236837        5.0530421675       -2.7234526377
 H        -5.3833207205        2.6402944663       -5.2557972773
 H        -6.9277849497        2.4223219519       -4.3529667793
 H        -5.3410463050        1.7243926671       -3.8214202190
 H        -7.7099214641        2.3486403539        4.0790979305
 H        -7.2228256260        0.7905032702        4.3640730820
 H        -8.9860909359        1.0752776573        3.8644434220
 H        -5.6078495607        1.3182496468        3.0545504163
 H        -5.3336189100        0.4614843712        1.4787219610
 H        -6.2191027551       -0.3627898287        2.7508751102
 H       -13.8577059583       -1.9775678199       -0.3714480163
 H       -13.2262069535       -3.0286824383        0.7388138873
 H       -12.7362854793       -3.2636520562       -0.8741102118
 H       -12.9778930399       -0.1207470412       -1.3756567177
 H       -11.9696214070       -1.3382208813       -2.1858478429
 H       -11.2915226774        0.0838930369       -1.4626877182
 H       -17.1995926014        1.5206110927        2.3843922273
 H       -17.0651702812        2.8042921017        3.5366687755
 H       -16.3654907065        1.2554363496        3.9413372246
 H       -16.4527388136        2.8450682930        0.5899016456
 H       -16.3650049686        1.1747845981        0.7098522158
 H       -15.0024008409        2.2865816548        0.0626083975
 H        -8.8953376150        6.2155915546        3.9930663359
 H        -9.2363491626        5.2596360719        2.5056918170
 H        -9.6363627730        4.5548197613        3.9811215949
 H       -10.9462596290        7.1806076965        5.1884735106
 H       -12.2641353246        7.8290598911        4.1411144869
 H       -10.6127610337        8.0628043758        3.6841187032
 Na      -10.8248414795        2.7065128781        2.4365152397
