117

 C        -9.0182660520        4.8493084416        6.6334937097
 C        -8.8255594586        5.2419843360        5.1681660084
 O        -7.9442405571        4.7418289602        4.4740281273
 C        -9.9750139277        6.2171036867        4.4838342493
 C       -11.2805062156        5.4341992590        4.2642671523
 O       -11.9137845507        5.1787448515        5.2780720567
 C       -11.9061550869        5.3167625752        2.9456887221
 C       -13.0968535852        6.3189710439        2.7807444181
 C       -13.5648869131        6.2507229763        1.2872241689
 O       -13.8819153432        5.1539602848        0.8442775666
 C       -13.4908957604        7.5193069508        0.2501515158
 C       -12.3913691401        7.1533480353       -0.8211566765
 O       -11.2305931490        7.4872165119       -0.6355149453
 C       -12.7843130940        6.3232743626       -2.0502769222
 C       -11.8737650334        6.3030544479       -3.2809903015
 C       -10.4080292741        5.7113379749       -2.9873909459
 O       -10.1982185852        5.0600927513       -2.0173299661
 C        -9.2023302451        6.1552556631       -3.9944755126
 C        -8.3491135298        4.8671097026       -4.4685307272
 O        -7.6151516061        4.3948931258       -3.6470714045
 C        -8.4200549524        4.2628964179       -5.8905278759
 C        -8.2883932767        2.7011690822       -5.8972354023
 C        -8.7929286471        2.0817094651       -4.5741508642
 O        -9.9310925278        2.4504047981       -4.2251508395
 C        -8.0360538117        0.8753238160       -4.0031636030
 C        -8.7722067711        0.5181699634       -2.6432281977
 O        -8.8157095828        1.2527761785       -1.7067631047
 C        -9.4984752832       -0.7969151810       -2.5072791435
 C        -9.8479820048       -1.2451604635       -1.1295856228
 C       -11.0891395469       -0.5930226320       -0.4313842032
 O       -11.9642531896       -0.0487094917       -0.9883560316
 C       -11.2522711166       -0.8042471203        1.1341414305
 C        -9.9226029760       -0.3004790929        1.7863371113
 O        -8.8595793723       -0.8299302405        1.5090162948
 C        -9.8783024700        1.0324262767        2.6444487407
 C        -8.4524955849        1.6040204715        2.8049136973
 C        -7.9778773056        2.4540403889        1.5998092811
 O        -8.7150269028        2.7989609924        0.6977954033
 C        -6.3620376518        2.5901588294        1.3048841691
 C        -6.2153169967        3.9501997645        0.5434773776
 O        -6.4049464331        4.0275543198       -0.6654625875
 C        -5.8607811463        5.2549649233        1.3218956372
 C        -5.5653828196        2.6026708751        2.5951562562
 C        -5.9360740130        1.4060808035        0.4551484529
 C       -12.4512859400        0.0556300993        1.6055795844
 C       -11.4775268563       -2.2781282822        1.5468902159
 C        -8.1997728502       -0.2398821950       -5.0559166693
 C        -6.5643745881        1.2016804176       -3.5846174536
 C        -9.7486567256        6.9294444495       -5.2891838170
 C        -8.3327890378        7.1363000680       -3.1862685526
 C       -14.9058310314        7.7921434913       -0.3723150448
 C       -12.9713510216        8.7800637624        0.9861471215
 C       -10.2692265738        7.4076794682        5.4416886539
 C        -9.4181883600        6.7553021276        3.1643684807
 H        -9.2810168485        5.7601711871        7.3105572835
 H        -8.2096185451        4.2272913167        6.9515392692
 H        -9.8966597003        4.1311409894        6.6753242870
 H       -12.2856565129        4.2858303787        2.9415928478
 H       -11.2731402462        5.5088280980        2.0183166904
 H       -12.9380146738        7.3176018772        3.0167811939
 H       -13.8600472097        6.0707488463        3.5131809359
 H       -13.7406187930        6.6816196235       -2.3732237352
 H       -12.8919792940        5.2894465040       -1.7234293913
 H       -11.8554385259        7.3325170887       -3.7424316429
 H       -12.3483402338        5.6077476875       -3.9793885386
 H        -7.5073154770        4.7496651154       -6.4104843733
 H        -9.2989001694        4.5614934927       -6.3823126059
 H        -7.2303345341        2.4559375554       -6.0721443789
 H        -8.8428206053        2.2559177835       -6.7361226209
 H        -8.8980268867       -1.5234981638       -3.0408217292
 H       -10.4285475084       -0.7756604677       -3.1241013005
 H        -9.0212007341       -1.0470579112       -0.4557202984
 H       -10.0239792462       -2.3117787999       -1.0930517532
 H       -10.3187988493        0.9114943045        3.6020365493
 H       -10.5834091226        1.7674186045        2.2245034552
 H        -7.7340807215        0.7496324917        2.9559051085
 H        -8.4128950819        2.2253698657        3.7091188981
 H        -6.4189789131        5.2835918091        2.3341779066
 H        -6.2853681719        5.9472271315        0.5965483031
 H        -4.7690077541        5.5004648891        1.4306331104
 H        -4.5338116153        3.0142066237        2.3952719746
 H        -5.5622581654        1.5775721846        2.9599937822
 H        -6.0082699052        3.2831059659        3.3913533700
 H        -4.9179190866        1.5000143546        0.0329450895
 H        -6.5555941072        1.2284637484       -0.4411809925
 H        -5.8990738126        0.5130659794        0.9963985163
 H       -13.3319091677       -0.5362326302        1.3083751430
 H       -12.4313140933        0.9929364060        1.0455163819
 H       -12.3894394183        0.3259280913        2.6733630353
 H       -12.0302845967       -2.3062374392        2.4802685100
 H       -10.4387310282       -2.7339990981        1.6051268135
 H       -12.1434530734       -2.8126263130        0.8674712530
 H        -9.2463629192       -0.5337956750       -5.1810336973
 H        -7.4890851821       -1.0442076215       -4.8126609339
 H        -7.8600783540        0.1827589530       -5.9960855240
 H        -6.5360966602        1.3519383963       -2.4865982137
 H        -6.3444812472        2.2128893302       -3.9340940527
 H        -5.8545323581        0.4500041886       -3.7941961839
 H        -8.9680524458        6.8353975819       -5.9821139465
 H        -9.8552663012        7.9912037071       -5.1636987515
 H       -10.5824715386        6.4541510525       -5.6958362105
 H        -7.8171479990        7.7845515413       -3.9001229465
 H        -7.7348896358        6.7148936597       -2.4376181267
 H        -9.0198450714        7.8160784850       -2.7003288944
 H       -15.2661760034        6.8440729803       -0.8131351987
 H       -14.8840162399        8.5393847367       -1.1382117793
 H       -15.5253801841        8.1408807223        0.4322738304
 H       -12.6403349204        9.4567151979        0.2298479702
 H       -12.0334174908        8.5446074922        1.4641002664
 H       -13.6833212406        9.2040215177        1.7036295395
 H       -10.5580568686        7.0616871650        6.3966890908
 H       -11.1660169570        7.9362020234        5.0217131366
 H        -9.4969222733        8.1922766202        5.4943038865
 H        -8.9177430926        6.0060421039        2.6078392384
 H        -8.6498271189        7.5023169821        3.3088048227
 H       -10.1436110420        7.1867530446        2.5105904802
 Na       -8.2399061027        3.5689733317       -1.6296278511
