117

 C        -8.8707758920        5.0294482036        6.5153261558
 C        -8.8105137220        5.3692482494        5.0266987009
 O        -8.0908046640        4.7332788526        4.2852032019
 C        -9.9410065934        6.3476861944        4.4519383059
 C       -11.2077833358        5.4195509717        4.3364443255
 O       -11.7405925462        4.8506005633        5.2734355889
 C       -11.9290112225        5.1916850536        2.8707092969
 C       -12.9078239712        6.3486882443        2.6296827289
 C       -13.5162798458        6.3016167055        1.1649179985
 O       -14.1073323130        5.4117994755        0.6339345837
 C       -13.3284070716        7.6452206812        0.2618824018
 C       -12.3062106940        7.1900237139       -0.8569232840
 O       -11.1515797694        7.5696366464       -0.8041145054
 C       -12.7111480632        6.1873551126       -1.9470498325
 C       -11.7336933533        6.4169539174       -3.1700247871
 C       -10.4070240692        5.6160800111       -3.1189580005
 O       -10.1374574529        4.8506341729       -2.2157091727
 C        -9.2275507690        6.0560793072       -4.0988321982
 C        -8.3446528349        4.8652820873       -4.3893596132
 O        -7.5784638446        4.3873915598       -3.5794386697
 C        -8.4487232398        4.1883156552       -5.8387513781
 C        -8.1694440758        2.7479736678       -5.7173287372
 C        -8.7961947987        2.0886885807       -4.5353556123
 O        -9.8670777750        2.4663394220       -4.1510347547
 C        -8.1098078963        0.7803719467       -3.8563226846
 C        -8.9238444103        0.4846049418       -2.5929912642
 O        -8.9682507365        1.2885896655       -1.6274420879
 C        -9.8097377956       -0.7517521684       -2.4523897536
 C        -9.8946073934       -1.2590092242       -0.9925673988
 C       -11.2106760795       -0.7309916565       -0.3710602810
 O       -12.0576868015       -0.3464859000       -1.1844491664
 C       -11.3868418239       -0.7218806426        1.1217911786
 C       -10.0499944856       -0.2384463538        1.8461905017
 O        -9.1040965504       -0.9769523986        1.7118826987
 C        -9.7529356783        1.0453775710        2.6142351509
 C        -8.2490063052        1.3885507505        2.6301561660
 C        -7.8741329052        2.4017796173        1.5734383383
 O        -8.7767864226        2.8979331749        0.8938200178
 C        -6.3443757953        2.7756679090        1.3198478746
 C        -6.1535146333        4.0287445234        0.4367999472
 O        -6.2914102194        3.8915855406       -0.7697833170
 C        -6.0382589158        5.3880230542        1.1313704387
 C        -5.5969279515        2.9753992489        2.6779063042
 C        -5.7293469063        1.5460313863        0.5826693698
 C       -12.7906819174       -0.0597293709        1.4867221450
 C       -11.4602810935       -2.2385121839        1.5070494702
 C        -7.8407319102       -0.4616570494       -4.8259414732
 C        -6.7197468472        1.3098742080       -3.3887214267
 C        -9.7057046549        6.6925034191       -5.3562427727
 C        -8.3773638495        7.0730045586       -3.2526248995
 C       -14.8312651577        7.8910831059       -0.1909805593
 C       -12.8500298295        8.9267865702        1.0202003401
 C       -10.1285391201        7.5331987979        5.3528321486
 C        -9.3139530300        6.7484298458        3.0863337658
 H        -8.2375881894        5.6988779074        7.0053972350
 H        -8.6437406724        3.9512898577        6.7115585362
 H        -9.8256020215        5.2151392197        6.9079418117
 H       -12.4140175296        4.2097750285        2.8096889612
 H       -11.1859292845        5.3170449596        2.1286625363
 H       -12.4473726045        7.3671178819        2.8260197148
 H       -13.7263077844        6.3980451567        3.3607832974
 H       -13.7829167608        6.2452461768       -2.2343597672
 H       -12.4940778354        5.1943783569       -1.5088749406
 H       -11.5167639194        7.4726135627       -3.2126135963
 H       -12.2168400442        6.1677112067       -4.1535425067
 H        -7.7942337080        4.6840163793       -6.5008955953
 H        -9.5254843093        4.3378518876       -6.1730546914
 H        -7.0925017192        2.6031756631       -5.8332337387
 H        -8.5439615930        2.1128561028       -6.5406094361
 H        -9.7011227175       -1.4823738618       -3.2699832540
 H       -10.7995054822       -0.3662095324       -2.6665091905
 H        -9.0113646182       -1.1247600957       -0.3334168200
 H       -10.1189552781       -2.3709009836       -0.9709836786
 H       -10.1241575873        0.9726671124        3.6725925047
 H       -10.4037576473        1.8472110995        2.2893026303
 H        -7.7081853830        0.4758172488        2.5332915270
 H        -7.9514223005        1.8143771069        3.6003446225
 H        -6.5278753316        5.3231424957        2.0173454583
 H        -6.4072615946        6.1727406891        0.4436471751
 H        -4.9735445035        5.4747414890        1.3255088097
 H        -4.5901998250        3.1231664013        2.4391933323
 H        -5.7364808328        2.1250026594        3.3101672661
 H        -5.9475125497        3.7842110713        3.2035501796
 H        -4.6451979498        1.7029558112        0.4656727415
 H        -6.0716513560        1.4210865334       -0.4468905682
 H        -5.8488715403        0.4924965551        1.0229206652
 H       -13.6067782156       -0.5139109883        0.9387736784
 H       -12.7015528359        1.0258962613        1.3968123548
 H       -12.8666289495       -0.2372144423        2.5667090472
 H       -11.6386278721       -2.2823438632        2.5772685196
 H       -10.5367117232       -2.6473093902        1.2926756650
 H       -12.2743124187       -2.7482686473        0.9922305809
 H        -8.6111322989       -0.4006961672       -5.5750720472
 H        -7.9403988385       -1.3763075063       -4.2851529027
 H        -6.9005254081       -0.3646641000       -5.3642408043
 H        -6.6026716501        2.1723551650       -2.7660705819
 H        -6.2192909719        1.6542432700       -4.2648681870
 H        -6.2484311893        0.4037360145       -2.9180545985
 H        -8.9907048504        6.8151668387       -6.2015985329
 H        -9.9624573361        7.7105860950       -5.0123440445
 H       -10.5672750305        6.1432852254       -5.8199578892
 H        -7.4128860285        7.2773532848       -3.6736556003
 H        -8.2730640832        6.5477274074       -2.2402667663
 H        -8.8394997178        8.0622647273       -3.1666417459
 H       -15.2081171136        7.0628859432       -0.7400998984
 H       -14.7163084173        8.7270871441       -0.9012239277
 H       -15.5039654518        8.1919734145        0.6447148002
 H       -12.9522220907        9.8284445088        0.3796011108
 H       -11.7759594935        8.8274379686        1.1636169857
 H       -13.2957900365        9.0057265344        1.9879774466
 H       -10.7163918361        7.2114192801        6.2313200511
 H       -10.5724564803        8.3875462769        4.9554238768
 H        -9.1518783242        7.8921244138        5.6025083890
 H        -9.1202446243        5.9108019203        2.3579221844
 H        -8.2948828156        7.1293235790        3.1932334053
 H        -9.8604600141        7.5309499695        2.5146890970
 Na       -8.5741511889        3.5654052131       -1.4395881952
