117

 C        -9.4766162655        4.4697381976        6.5801989020
 C        -9.0896936530        5.0924928772        5.2285670071
 O        -8.2189256775        4.5820176867        4.5415806435
 C       -10.0738766059        6.2569585752        4.7242209982
 C       -11.4936596483        5.6059541667        4.4858369831
 O       -12.1960080811        5.3583828045        5.4367348347
 C       -11.9041968196        5.2838316998        3.0900487115
 C       -12.9908846442        6.2527363718        2.7002821407
 C       -13.5033810190        5.9549744481        1.2344041708
 O       -13.6749338756        4.7805428440        0.9498678890
 C       -13.6124964336        7.1774641390        0.2382568792
 C       -12.4481079359        6.9143544005       -0.8328511442
 O       -11.4575221287        7.6054077106       -0.8506411905
 C       -12.6503069941        5.8174435423       -1.8779867847
 C       -11.7655056099        6.0096469078       -3.1714239223
 C       -10.3063467449        5.7445229959       -2.8550569680
 O        -9.9918173557        4.9484555999       -2.0072281412
 C        -9.1747849852        6.3985832983       -3.7891870949
 C        -8.5051542309        5.1619151702       -4.4061793987
 O        -7.5974508774        4.5834900111       -3.8120901533
 C        -9.0953921995        4.5646780856       -5.6866458121
 C        -8.8624158054        3.0776570196       -5.8940741266
 C        -9.1375254524        2.2240909027       -4.5746227309
 O        -9.8629776648        2.6164357494       -3.7110947375
 C        -8.2857904719        0.8847164303       -4.4759456561
 C        -8.7428384328        0.3194953430       -3.0039808726
 O        -8.4699694054        1.0869782510       -2.0912009115
 C        -9.5977491983       -0.8701937209       -2.8202847521
 C        -9.6549226534       -1.4016441930       -1.3745797290
 C       -10.4740022826       -0.3038518217       -0.5967926028
 O       -10.9491915481        0.6651794909       -1.1015182482
 C       -10.7778942343       -0.6402793171        0.9436796154
 C        -9.7695506027        0.2373668438        1.6640158881
 O        -8.5895098607       -0.0864235427        1.5677631533
 C       -10.0781671392        1.5080772264        2.4388689624
 C        -8.7156966526        2.1554309548        2.8860914304
 C        -8.0717433196        2.4511620398        1.5231792578
 O        -8.7559976973        2.9149322187        0.6727979639
 C        -6.4756476373        2.4043068739        1.3175893212
 C        -6.0921163350        3.8937305099        1.0129296550
 O        -6.5681291880        4.4018343949        0.0357133756
 C        -5.2634530348        4.6246119112        1.9958726321
 C        -5.6846420200        1.6624824935        2.5444398970
 C        -6.2699773772        1.6080460136        0.0281026878
 C       -12.2861814430       -0.3363309771        1.2205956080
 C       -10.4721033811       -2.0959683888        1.3197468049
 C        -8.6645205019       -0.0344562756       -5.6868455992
 C        -6.7320109612        1.0383259711       -4.4819009711
 C        -9.6248725145        7.3615946222       -4.9021402752
 C        -8.1316501530        7.0262638220       -2.7877960372
 C       -15.0620163713        7.0896961446       -0.4708819252
 C       -13.4892388205        8.5359101113        0.9447568882
 C       -10.2726004243        7.2625377272        5.8436582468
 C        -9.4137141264        6.9706836480        3.5436853331
 H        -9.6746181719        5.1493413626        7.4178583142
 H        -8.7193019466        3.7938405458        6.8583298526
 H       -10.3688823546        3.8086620055        6.4685306894
 H       -12.2609478089        4.2530515053        2.9789281864
 H       -11.1293715150        5.2841816690        2.3494710820
 H       -12.6545689747        7.3443764137        2.7598933470
 H       -13.7907357838        6.1013006429        3.4493641845
 H       -13.7250323567        5.7506578986       -2.1658129380
 H       -12.3944572699        4.9062833505       -1.3546676969
 H       -11.8605501353        7.0434211620       -3.4913949040
 H       -12.1166079419        5.2754942972       -3.9163998297
 H        -8.6501544187        5.0648141647       -6.4504434586
 H       -10.1911281787        4.7557279986       -5.7781269558
 H        -7.8455093928        2.9536141392       -6.2513560836
 H        -9.6304108825        2.6379195777       -6.5403486270
 H        -9.1693464808       -1.6820723707       -3.4898523603
 H       -10.5838080656       -0.6412989638       -3.2161845787
 H        -8.6830232505       -1.5866808756       -0.9835745312
 H       -10.2480700158       -2.2779767603       -1.4461886761
 H       -10.7991185275        1.3887225938        3.2817051631
 H       -10.5122536824        2.1406325503        1.6773029201
 H        -8.2046932475        1.4913299480        3.5267459433
 H        -8.9160512698        3.1647911551        3.3695019095
 H        -5.8325529659        4.6440302966        2.9742057494
 H        -4.9893610204        5.5609987573        1.5539874070
 H        -4.3435271852        4.1268554416        2.1250171497
 H        -4.5860014300        1.6803164628        2.3422382334
 H        -5.8588943369        0.5529409064        2.6711860300
 H        -5.8648394536        2.2441421281        3.5090358898
 H        -5.2781263934        1.3037141261       -0.1713927491
 H        -6.5307248661        2.1840786772       -0.8429707431
 H        -6.8778258888        0.6926313889        0.0654086218
 H       -12.9493823805       -1.0993155478        0.7625786551
 H       -12.4939884035        0.6200597865        0.7219126901
 H       -12.4453492055       -0.2689918987        2.3022151497
 H       -11.0260559460       -2.3521389384        2.2689666687
 H        -9.3642875268       -2.1034736109        1.5157662169
 H       -10.6876624680       -2.7246878846        0.4650633635
 H        -9.6870865831        0.1603011088       -6.0464149089
 H        -8.5833894880       -1.0897435010       -5.3871435649
 H        -7.9208133460        0.1298982978       -6.4732587609
 H        -6.3485978299        1.9729934979       -4.1066294495
 H        -6.2347496025        0.5599962402       -5.3543516086
 H        -6.3974135375        0.3243001262       -3.7460461013
 H        -8.7245418169        7.7261589265       -5.3821673577
 H       -10.1851779829        8.0888058825       -4.4159349676
 H       -10.2793612835        6.9124000667       -5.6313958974
 H        -7.2736497470        7.3359098958       -3.3719817367
 H        -7.7422153101        6.2801311700       -2.1336923496
 H        -8.4843972692        7.7915255678       -2.1075076090
 H       -15.2225685705        6.0364071058       -0.6620013230
 H       -15.0168399088        7.6994002818       -1.3848350577
 H       -15.8398040926        7.4345623334        0.1712324789
 H       -13.6158568069        9.2472726388        0.1669275634
 H       -12.5400014981        8.5639255974        1.4895890963
 H       -14.3723691567        8.7498708312        1.5566135982
 H       -10.6457587723        6.6896169705        6.7260731122
 H       -10.9469331765        8.0762837453        5.6339788490
 H        -9.3081461762        7.5371322948        6.2401748330
 H        -8.8698222810        6.3298559216        2.8895381452
 H        -8.8329529963        7.8028123363        3.9078118720
 H       -10.1604553610        7.4104982754        2.9275790480
 Na       -8.0829543901        3.4633530245       -1.6509948552
