117

 C        -9.3872335324        4.3727948334        6.6029277672
 C        -9.1283673812        5.0444805060        5.2883866206
 O        -8.2352940953        4.6981614229        4.5175799301
 C       -10.0701462279        6.2461618036        4.9060443492
 C       -11.4882039679        5.5498524158        4.5255041384
 O       -12.3777454291        5.3895502792        5.3495711238
 C       -11.9558519538        5.2113309093        3.0996059139
 C       -13.0359290368        6.2686298717        2.7880333584
 C       -13.4536813044        6.0092003367        1.2990621486
 O       -13.6274813677        4.8292075814        0.9865247388
 C       -13.6079732169        7.1181745571        0.2119156430
 C       -12.5451665773        6.9392523572       -0.9007496003
 O       -11.5546193647        7.6548997798       -0.8995903011
 C       -12.6978095844        5.8002602004       -1.9634253044
 C       -11.7074654982        5.9912834388       -3.1314412167
 C       -10.2276847474        5.6611869311       -2.7254855159
 O        -9.9441374946        4.8942911668       -1.8565464428
 C        -9.1066798430        6.2860776474       -3.6897295501
 C        -8.4551381122        5.0765432536       -4.4066652038
 O        -7.4883376707        4.5451729524       -3.9039714405
 C        -9.1048332806        4.5244288841       -5.7166233432
 C        -8.8959697823        3.0646893245       -5.9339369690
 C        -9.1342963318        2.2779587296       -4.6026403434
 O        -9.8679067160        2.7452921634       -3.7007579911
 C        -8.3387867164        0.9338086153       -4.4665434505
 C        -8.6679196805        0.4123440158       -3.0856334585
 O        -8.2067128613        1.0494297811       -2.1496566216
 C        -9.4239077663       -0.9147079759       -2.9753501956
 C        -9.7248394659       -1.3438494256       -1.4242654320
 C       -10.5570439972       -0.3736151518       -0.6017108079
 O       -10.8471670636        0.7188780573       -1.0154850805
 C       -10.7403462362       -0.7292281553        0.9196285373
 C        -9.6971411796        0.2469069270        1.5745055061
 O        -8.5196607635       -0.0088887134        1.4112921735
 C       -10.1681422267        1.4967312928        2.3818073621
 C        -8.8224897384        2.1500523990        2.8096986096
 C        -8.1096606408        2.5654293323        1.5581675282
 O        -8.7076913260        2.9026743302        0.5313413494
 C        -6.6124321309        2.4062918385        1.2625039446
 C        -6.1255596265        3.8626899344        1.0746754248
 O        -6.5667285227        4.5196240037        0.1002690132
 C        -5.1284401203        4.5815875453        2.0310839715
 C        -5.8642983509        1.6852512801        2.4618907469
 C        -6.2539741887        1.4968602116        0.0517384823
 C       -12.2230383327       -0.3355881267        1.2846676723
 C       -10.4267870187       -2.2220616996        1.3131438103
 C        -8.9421482513        0.0136152002       -5.6381157460
 C        -6.8289943513        1.1552925382       -4.5746112290
 C        -9.6459488866        7.4264608688       -4.6988092724
 C        -8.1336329387        6.9949810919       -2.7183244305
 C       -15.0401142705        6.8861918925       -0.4225502876
 C       -13.5982876799        8.5386497672        0.8098014473
 C       -10.3037199767        7.2991561883        6.0094797045
 C        -9.3654046711        6.9297351570        3.6100353975
 H        -9.1105714913        5.0869598880        7.3921689132
 H        -8.6735117063        3.6240782977        6.6950570703
 H       -10.3263724107        3.9676406769        6.8245148884
 H       -12.3300073512        4.2409853981        3.0073434256
 H       -11.2505557114        5.2121241102        2.2593073537
 H       -12.7364436720        7.2922618932        3.0439719804
 H       -14.0140467433        5.9970567744        3.3387688508
 H       -13.7449653797        5.7968906195       -2.3568350602
 H       -12.5368299315        4.8539080757       -1.4185280116
 H       -11.8797322127        7.0217418281       -3.5278167237
 H       -11.9571422770        5.2280285555       -3.8653190323
 H        -8.6210318057        5.1347738341       -6.5420572706
 H       -10.1498704945        4.7198846685       -5.8125945046
 H        -7.8213998198        2.9512111826       -6.1959365131
 H        -9.5896957740        2.6249002425       -6.6510549562
 H        -8.8468280007       -1.6787556836       -3.5278049711
 H       -10.3539807202       -0.7704059112       -3.5344216900
 H        -8.7770412686       -1.3088788218       -0.8607702773
 H       -10.1861614034       -2.3275410283       -1.4071572438
 H       -10.7426554797        1.2305633202        3.2917135396
 H       -10.7569895002        2.1245119217        1.6867250400
 H        -8.2874346548        1.3860863658        3.3451224538
 H        -9.0038886389        3.0513910154        3.4123342852
 H        -5.4064206720        4.4468978677        3.0741576175
 H        -5.0370459190        5.5606609374        1.7294819534
 H        -4.1649470771        4.1846634311        1.8276219433
 H        -4.7906297231        1.5105436131        2.2414599957
 H        -6.2193543865        0.6551703418        2.5172377189
 H        -5.9877908636        2.1741546773        3.4728549877
 H        -5.1609622454        1.3965648909        0.0993975991
 H        -6.4345541793        1.9446356176       -0.9405758850
 H        -6.6735591145        0.5393887009        0.0633397047
 H       -12.9323743988       -1.0032926183        0.7728503349
 H       -12.3649979497        0.6562497719        0.8895821263
 H       -12.4058485553       -0.4047848112        2.3499676728
 H       -10.9002139845       -2.4713815949        2.2627419275
 H        -9.2991618263       -2.1944050220        1.4517534413
 H       -10.6310116361       -2.8456911355        0.4684964410
 H       -10.0462682811       -0.1671543695       -5.5944483501
 H        -8.3996777207       -0.9587353377       -5.5590158673
 H        -8.6349222194        0.4899714719       -6.5905377274
 H        -6.6894792226        2.2266120411       -4.2895304875
 H        -6.5047904948        0.8802133223       -5.6004103505
 H        -6.1654241394        0.5614495145       -3.9955112006
 H        -8.7374115535        7.9414554741       -5.0376240315
 H       -10.3803770436        8.0571136882       -4.1115561452
 H       -10.1462806536        7.0330834662       -5.6049560086
 H        -7.4639321959        7.5755193363       -3.4061468469
 H        -7.4479279143        6.4239138990       -2.1393643354
 H        -8.6466089246        7.6746919634       -2.0148477763
 H       -15.2356919328        5.7956791515       -0.4203277923
 H       -14.9615122485        7.3060335681       -1.4154427898
 H       -15.8190213273        7.3515081104        0.1273762154
 H       -14.0868334410        9.2008768329        0.1449609284
 H       -12.6200794432        8.7633649128        1.2184215627
 H       -14.3722479338        8.4886892532        1.6045083501
 H       -10.5696634275        6.8600411196        6.9495214463
 H       -11.1419032049        7.9944713825        5.6995242152
 H        -9.3661246045        7.8153191698        6.2753724959
 H        -8.9107942464        6.1901772319        2.9994121245
 H        -8.6666632983        7.7086708089        3.9409083087
 H       -10.0894902050        7.4064278335        2.9657334834
 Na       -8.0339014385        3.5536777227       -1.6760300557
