117

 C       -11.7015320816        7.6737367631        1.1324675372
 C       -11.6598580986        6.2912074120        1.8286293404
 O       -11.6367222883        5.2335538084        1.3023247073
 C       -11.2721377965        6.1886386080        3.4766298221
 C       -12.2937155471        5.0787464038        3.8964362016
 O       -11.8675613844        3.9894292811        4.0403346085
 C       -13.7733224601        5.3909048952        4.1398408462
 C       -14.7143630691        4.3010507729        4.0155519177
 C       -14.7827538104        3.7688145397        2.5140030168
 O       -14.4437003969        4.2754694573        1.4635615168
 C       -15.3804862817        2.3374068899        2.3856479485
 C       -14.2331767005        1.4015496157        2.8870657189
 O       -13.2127283693        1.9216247793        3.3516417558
 C       -14.4741784731       -0.1354937617        2.8374194672
 C       -13.0147590088       -0.7910035694        2.6871033817
 C       -12.3827740994       -0.3473674066        1.2991890068
 O       -12.2758196136        0.8726533956        1.0811456380
 C       -12.0533941116       -1.3331984852        0.1452053313
 C       -10.6545674154       -1.9919859070        0.3534517740
 O       -10.6610593379       -2.9293987492        1.1088120811
 C        -9.2928721239       -1.5137645813       -0.1131481632
 C        -8.3409994257       -1.1797052819        1.0726547920
 C        -8.6949038610        0.2798051348        1.6627892394
 O        -9.8441455320        0.5875772195        1.7920238152
 C        -7.4691390255        1.4283834652        2.1706458641
 C        -7.7523164828        2.6903361043        1.2690215664
 O        -8.7747616944        3.2788855793        1.4335670621
 C        -6.5934878377        3.2880627989        0.3225348013
 C        -6.8151810652        2.7808776518       -1.1183244736
 C        -5.3279145115        3.1244081075       -1.8004966957
 O        -4.3663700775        2.5108884655       -1.3193854247
 C        -5.5048288162        3.7056167815       -3.2376732502
 C        -6.4696339651        4.7980541857       -3.4161494754
 O        -7.0637089430        5.2720249581       -2.4444986867
 C        -6.8633266546        5.2736837215       -4.9066876360
 C        -7.2091226359        6.7602401324       -4.9265284156
 C        -7.7804645311        7.3357164065       -6.2487636734
 O        -8.3940602924        6.6645212442       -7.0473667956
 C        -7.3232716614        8.8321850967       -6.5982102126
 C        -5.9858745115        8.8134461971       -7.5608307720
 O        -5.1402241808        8.0124424620       -7.2818424933
 C        -6.0371561144        9.7985912060       -8.6839615298
 C        -8.5014888288        9.5871996146       -7.3246214423
 C        -6.8479882996        9.7166961049       -5.3114385408
 C        -4.0683348896        4.2242336626       -3.6126716086
 C        -5.9107852090        2.5159562371       -4.2030620914
 C        -7.8029369366        1.9214267726        3.6055309913
 C        -6.0448292999        0.9792485352        1.8183003465
 C       -13.0565105882       -2.4873166538        0.0896048904
 C       -11.8916764636       -0.4378736627       -1.2152976444
 C       -16.4728709246        2.1398747161        3.5116563650
 C       -15.9052879087        2.0016574923        0.9833729262
 C        -9.8978536390        5.6171625787        3.7986927760
 C       -11.4248777770        7.5288582343        4.2282674878
 H       -10.6893057409        7.9863057640        1.3681826669
 H       -12.4041537964        8.2950311707        1.6236741269
 H       -11.7665404655        7.5565226242        0.1060387140
 H       -14.0237463484        6.3686038483        3.6940135778
 H       -13.7110856795        5.7276700006        5.2563924537
 H       -15.6507602359        4.5018120075        4.3985913628
 H       -14.2534931615        3.4634114253        4.6587151450
 H       -15.0067022861       -0.2662934925        1.9010094563
 H       -15.2103554397       -0.4572043814        3.6060325872
 H       -13.0862245989       -1.8769474071        2.6254500340
 H       -12.3700056846       -0.4214009825        3.4101755284
 H        -9.3291841963       -0.6557413492       -0.8723699295
 H        -8.8777818084       -2.2810284327       -0.7651050063
 H        -7.3255305076       -1.2982872887        0.7749528467
 H        -8.5002061940       -1.9956951219        1.9092632284
 H        -5.6648180348        2.9215419993        0.6678214581
 H        -6.6379241716        4.4371632384        0.3490000091
 H        -7.6929387848        3.2168932356       -1.5013342055
 H        -7.2679025361        1.8634174903       -0.9216578636
 H        -7.7788548612        4.7341032564       -5.2886834788
 H        -5.9812190330        5.0393419380       -5.5695097403
 H        -6.2777085745        7.2948903951       -4.7419853927
 H        -8.0078626283        6.8989080712       -4.1522445686
 H        -6.0836318471       10.8231814821       -8.4490871126
 H        -6.9491807826        9.4878636651       -9.1860425476
 H        -5.1669920955        9.7951757349       -9.4006909912
 H        -9.4048873079        9.7145517909       -6.8385685828
 H        -8.8869971466        9.1124484799       -8.1597464092
 H        -8.2768392596       10.5617858275       -7.6085992861
 H        -5.7603936139        9.5580377700       -5.2047865784
 H        -7.3714253174        9.5587149389       -4.3680307845
 H        -7.0775896674       10.6946026771       -5.7822991236
 H        -4.1136482550        4.4653840313       -4.6879733433
 H        -3.5248658598        3.2704406643       -3.6142046725
 H        -3.7800465545        5.1363194450       -3.1954671590
 H        -6.7324866512        2.8179614489       -4.8895554807
 H        -6.3106039743        1.6589179739       -3.6262744779
 H        -5.0977868764        2.2331712105       -4.7617081964
 H        -7.2529437936        2.8271073144        3.8914921599
 H        -7.7184061467        1.2909304525        4.4027003619
 H        -8.8313058997        2.1553033042        3.3628917284
 H        -5.3527611950        1.8625463270        1.8390947573
 H        -6.2231156791        0.7491392858        0.7709158767
 H        -5.7052747959        0.0306489961        2.2217367400
 H       -14.1523023198       -2.3123935454        0.1619694899
 H       -12.7464878691       -3.0649445691        1.0258214142
 H       -12.7160152974       -3.0963539657       -0.7860104854
 H       -12.3205494665        0.5738070278       -0.9359074102
 H       -12.5987263064       -0.8510559778       -1.9784690426
 H       -10.9382163266       -0.2722679024       -1.6577819816
 H       -16.5066428343        1.0850038764        3.9074394034
 H       -17.5138208994        2.3540920704        3.1416909774
 H       -16.1669380916        2.8851130510        4.2841712518
 H       -16.8129641842        2.3228443681        0.5704685364
 H       -15.9445177259        0.9003583844        0.9334645958
 H       -15.1712499936        2.4046588681        0.3101030783
 H        -9.1748908289        6.1560693175        3.1124622285
 H        -9.7590283981        4.5490746250        3.7172491372
 H        -9.7288118830        5.8085196368        4.8558154122
 H       -10.8216356518        7.4051124885        5.1365728990
 H       -12.5433552193        7.6211674002        4.3583493551
 H       -11.0796040475        8.4290862233        3.7186864086
 Na      -11.0129912173        2.9343334974        1.8153853585
