117

 C        -8.4799849146        5.2115562162        6.2358805321
 C        -8.7345740635        5.2960588945        4.7780548941
 O        -8.1935769299        4.6577728293        3.8866226068
 C        -9.8957908101        6.2778562104        4.2025364602
 C       -11.1087059542        5.3245327706        4.1288879344
 O       -11.3821638834        4.6530297430        5.1127685646
 C       -11.9138025767        5.2639386001        2.8031520877
 C       -12.6571511087        6.5574212163        2.6868178998
 C       -13.2247522132        6.5981135001        1.2109362274
 O       -13.8222085113        5.6316604466        0.7953950818
 C       -13.1704023707        7.8661060594        0.2360614018
 C       -12.1157416768        7.4513331795       -0.9775044156
 O       -10.9885355771        7.9461234890       -1.0175011346
 C       -12.6603473455        6.3005466138       -1.9109497853
 C       -11.7824163546        6.3676718570       -3.2333224624
 C       -10.4354435803        5.6099509544       -3.1411630779
 O       -10.3518326340        4.7655388519       -2.3241489365
 C        -9.2325378404        6.0639961917       -4.1627784074
 C        -8.4891193543        4.7866366171       -4.3891540597
 O        -7.8347935090        4.3460877482       -3.4908874596
 C        -8.4741571407        4.0791196963       -5.7805327582
 C        -7.9954278826        2.6286260043       -5.5287524828
 C        -8.6989795537        1.9424800497       -4.3022213149
 O        -9.8761989998        2.2037746430       -4.0589273711
 C        -7.9611620174        0.7339232086       -3.4908244426
 C        -9.0451056116        0.2676786201       -2.3920290732
 O        -9.2633571549        1.0739187034       -1.5038516674
 C        -9.8663579480       -1.0723147885       -2.4062382782
 C       -10.3141860409       -1.6577960532       -1.0509484460
 C       -11.4359427021       -0.8633354418       -0.3292493251
 O       -12.3492584387       -0.3964161833       -0.8960932388
 C       -11.4366665191       -0.8291784992        1.2089397177
 C       -10.0038387434       -0.5051720481        1.8167022102
 O        -9.1380888762       -1.3097465247        1.9605753308
 C        -9.7584477224        1.0303340163        2.0089634964
 C        -8.3943844979        1.5451939199        2.4950876196
 C        -7.9456730508        2.6422473941        1.5724057678
 O        -8.7357851892        3.2615829569        0.8250594294
 C        -6.3834972957        2.9662592528        1.5181241787
 C        -6.2963065643        4.0615609188        0.4410358148
 O        -6.4602454737        3.8226717487       -0.7483884380
 C        -6.2023586471        5.4933048356        0.9651261278
 C        -5.7530859493        3.3460180225        2.8807823863
 C        -5.6694013232        1.6822041299        1.0178825873
 C       -12.5307206971        0.0979675788        1.8079763948
 C       -11.8000831604       -2.2649881673        1.6526442250
 C        -7.6263581749       -0.4096963556       -4.5836771573
 C        -6.6490547318        1.0878105802       -2.8091758532
 C        -9.7199582825        6.7145315272       -5.4812890698
 C        -8.5391844467        7.0705407218       -3.1854529065
 C       -14.4956185527        8.1338109052       -0.4166213532
 C       -12.6762937303        9.1505258493        0.9891317283
 C       -10.3282552669        7.4935624084        5.0860557119
 C        -9.3024079879        6.7322940685        2.8754397678
 H        -7.3591282083        5.0365232287        6.3204596215
 H        -9.0596147078        4.3705704257        6.6401004259
 H        -8.6678790046        6.1727567440        6.6966000498
 H       -12.6434633277        4.4390450418        2.8704443313
 H       -11.1798458873        5.1063762509        2.0410746443
 H       -11.9310683061        7.3912003069        2.9064754222
 H       -13.5698924235        6.6727467481        3.2410218585
 H       -13.7122488189        6.4443190654       -2.1645252588
 H       -12.5869791404        5.3301321494       -1.4110718150
 H       -11.7574075057        7.3640109593       -3.6332721526
 H       -12.3121906712        5.8436912766       -4.0742582843
 H        -7.7306557345        4.5323787581       -6.4772452341
 H        -9.4738949798        4.1399752992       -6.2771119749
 H        -6.9052253039        2.5916727949       -5.3335953228
 H        -7.9727221220        2.1517666726       -6.5144347086
 H        -9.4433821310       -1.8446823727       -3.0714199174
 H       -10.7432704573       -0.7765780355       -2.9628373959
 H        -9.5635337727       -1.9989175768       -0.3067674100
 H       -10.7641255118       -2.6566301672       -1.3529381150
 H       -10.5151620734        1.4321692550        2.7232381392
 H        -9.9901921567        1.5901955197        1.1118638426
 H        -7.6120748655        0.8225385303        2.6051214762
 H        -8.4366617999        2.0181882183        3.4851354514
 H        -7.1482567154        6.0092212226        1.0160521859
 H        -5.6134362181        6.0085454698        0.1727574279
 H        -5.6237748181        5.3929853255        1.9380354477
 H        -4.6553231680        3.4370266230        2.8363785182
 H        -5.9802534405        2.5079769715        3.5658438227
 H        -6.2966404637        4.1796144688        3.2872602322
 H        -4.6146591029        1.9469405454        0.8761191113
 H        -6.0183027201        1.3314854298        0.0606368398
 H        -5.7249414186        0.7257448699        1.5537057836
 H       -13.4741492338       -0.4701334435        1.8024364632
 H       -12.6837902647        1.0327456148        1.2208309918
 H       -12.3375813780        0.2294069112        2.8936693001
 H       -11.8819020746       -2.3672612667        2.7340401135
 H       -11.0490914744       -2.9390666900        1.3364752285
 H       -12.6922504485       -2.5226229811        1.0253486185
 H        -8.5134081658       -0.8936127310       -4.9427238250
 H        -6.9466014936       -1.1662975006       -4.2281767133
 H        -7.1934486406        0.1776788654       -5.4019838229
 H        -5.9156246559        1.4726200503       -3.4683426228
 H        -6.1906511986        0.1849877341       -2.4423971313
 H        -6.8369594692        1.7145241416       -1.8924991870
 H        -9.0434344638        6.4852230042       -6.2315700405
 H        -9.8797474792        7.7940611900       -5.4038729473
 H       -10.6489119776        6.3628097236       -5.8390800718
 H        -7.9290019257        7.7340073849       -3.7191325928
 H        -7.8708875820        6.4659384291       -2.5461775254
 H        -9.2729777997        7.6574248513       -2.6881856454
 H       -15.1975532483        7.3356827647       -0.4761653028
 H       -14.2398360202        8.5699951875       -1.3721300571
 H       -15.0206167731        8.9008736049        0.1984946591
 H       -12.5040965530       10.0536572005        0.3519730103
 H       -11.8903481626        8.9366390188        1.6662490797
 H       -13.4755196769        9.4179716764        1.6326624370
 H       -10.5271996029        7.2015783313        6.1235062524
 H       -11.2647250387        7.9289401599        4.7815702887
 H        -9.5557086253        8.2812144811        5.0035206842
 H        -8.9263433059        5.8716731245        2.3230016233
 H        -8.4502169375        7.3356224075        2.9767936966
 H        -9.9079367288        7.2971575824        2.1787011332
 Na       -8.5393486803        3.3283966457       -1.6706215488
