117

 C        -8.2339575684        5.3258210877        6.2249383416
 C        -8.6481636764        5.2568123920        4.6715291593
 O        -8.1295523775        4.5037804854        3.8831943128
 C        -9.8078712676        6.2843751345        4.1195925106
 C       -11.1171958700        5.3576184919        4.0367989347
 O       -11.4569916670        4.5676687692        4.8726225205
 C       -12.0118129956        5.4278977479        2.7913339725
 C       -12.7492688295        6.7713961075        2.5442687805
 C       -13.2485163553        6.7141643591        1.0808372050
 O       -13.6984172370        5.7301877357        0.5699216693
 C       -13.0657733971        8.0134497467        0.1489057372
 C       -12.1416347408        7.5719815915       -1.0062036833
 O       -11.0450153397        8.0574421792       -1.0823088124
 C       -12.6307987659        6.3768573224       -1.9250351347
 C       -11.8534449631        6.2985885487       -3.2230439632
 C       -10.5173445654        5.6745213260       -3.1457389598
 O       -10.3517200592        4.8425189769       -2.2359750361
 C        -9.2628676059        5.9902470144       -4.1685419762
 C        -8.3693548583        4.7120902354       -4.2929705214
 O        -7.5115525948        4.4805376494       -3.4014272296
 C        -8.4789511953        3.8219376116       -5.5510632098
 C        -7.9343405347        2.4255201540       -5.2864729015
 C        -8.8199552260        1.7166546640       -4.2417387219
 O        -9.8928011570        2.1314915496       -3.9283388562
 C        -8.1369266835        0.4821034012       -3.4495362989
 C        -9.1048478938        0.1675089674       -2.2439363974
 O        -9.3025484100        0.9539739698       -1.3193574895
 C        -9.8789929718       -1.1543602123       -2.3332347985
 C       -10.2398092052       -1.6841884292       -0.9464916422
 C       -11.3945215547       -0.9056308742       -0.3021731087
 O       -12.1103600378       -0.1149426837       -0.9585233448
 C       -11.5680811308       -1.0007187279        1.2256200634
 C       -10.1357372624       -0.3944523206        1.7395039573
 O        -9.1743519999       -1.1567705725        1.8454584081
 C        -9.9058228801        1.0784061777        1.8400477619
 C        -8.5327789357        1.4819654226        2.3498197839
 C        -7.9788761314        2.7310250390        1.5641465061
 O        -8.7116567266        3.2292807775        0.7676169771
 C        -6.3540566986        2.9933151924        1.5736146995
 C        -6.2160141833        4.2103585156        0.5141339344
 O        -6.3208810019        3.9144324098       -0.6645706951
 C        -5.9563426232        5.6719512258        0.7887700485
 C        -5.7717177275        3.3161354367        3.0022226654
 C        -5.7102178234        1.7278371674        0.9347000576
 C       -12.6937741156       -0.1128977718        1.6975773297
 C       -11.6643241886       -2.4084899462        1.8652677575
 C        -7.8655833269       -0.6712996725       -4.4202950136
 C        -6.7937093458        1.0494408923       -2.7213275776
 C        -9.8516649902        6.7044331041       -5.4190112495
 C        -8.5679257516        7.0598620082       -3.2747467147
 C       -14.6036840548        8.3286991685       -0.2474001513
 C       -12.4286803225        9.2378120203        0.7800320343
 C       -10.1136297043        7.4210544445        5.1054508404
 C        -9.4821679560        6.8002815264        2.7743372574
 H        -7.6219105662        4.5458386452        6.4805353607
 H        -9.1769210322        5.2964656337        6.8023471612
 H        -7.7524948146        6.2668919534        6.3511390543
 H       -12.7240998273        4.6378940688        2.9205372134
 H       -11.3549776847        5.0995876037        1.9661608028
 H       -12.0444290588        7.5830983467        2.6129312062
 H       -13.6975156743        6.9328457256        3.1399345159
 H       -13.6970815950        6.5061429989       -2.1948972717
 H       -12.5909276147        5.4177447521       -1.3765005059
 H       -11.7497003889        7.3500720982       -3.5997734789
 H       -12.3998752103        5.8993796681       -4.0470137780
 H        -7.8639640537        4.3353978976       -6.2491669798
 H        -9.5106225831        3.8899130688       -5.9247620953
 H        -6.8850637646        2.4624929374       -5.0385444048
 H        -7.8765870934        1.8141658015       -6.1951816185
 H        -9.3163350613       -1.8944344309       -2.8787035771
 H       -10.7761802538       -1.0023487187       -2.9795681680
 H        -9.4348838430       -1.7147376179       -0.2187994561
 H       -10.5111824918       -2.7202959012       -1.0147255299
 H       -10.6460940726        1.6308761118        2.4075913127
 H       -10.0110265846        1.4033788626        0.7569882544
 H        -7.8420648177        0.6296949209        2.2253230843
 H        -8.5134012406        1.5991917815        3.4375760124
 H        -6.9238019344        6.0069377376        1.0801833483
 H        -5.8674805381        6.1141367881       -0.1843850987
 H        -5.2079863809        5.8676669282        1.4772665919
 H        -4.7415175082        3.2099357626        2.8618439019
 H        -5.9911579447        2.6011704628        3.7648636505
 H        -6.0371786240        4.3069463405        3.2554862151
 H        -4.6871460001        1.8056781760        0.5912906083
 H        -6.3040379017        1.2265297385        0.1493430600
 H        -5.6903283524        0.9143909887        1.6742297468
 H       -13.5864747439       -0.6465639806        2.0310084824
 H       -12.9936596114        0.4603301810        0.8281424188
 H       -12.4170759252        0.4795993562        2.5530629252
 H       -11.9732750453       -2.2219326542        2.8814872560
 H       -10.7529391039       -3.0028187135        1.9162573259
 H       -12.3733533951       -2.9857095859        1.3718394606
 H        -8.7264443330       -0.6685786535       -5.1020890901
 H        -7.8950418236       -1.6636130278       -3.9723000518
 H        -6.9468453598       -0.5353063848       -4.9621061043
 H        -5.9907692731        0.5752309385       -3.3599236551
 H        -6.5833752887        0.8030353726       -1.6381259254
 H        -6.6286631535        2.0975535722       -2.8139692172
 H        -9.2662466426        6.6195730406       -6.4051215896
 H       -10.0032962288        7.7519145181       -5.2001911909
 H       -10.9383906208        6.4625909085       -5.6488257976
 H        -7.7520450960        7.6358651567       -3.8137086495
 H        -8.0815434644        6.5547419814       -2.4528578272
 H        -9.3845728683        7.7631633099       -2.9417829227
 H       -15.0107918044        7.3489559413       -0.5705016740
 H       -14.6775560937        9.0287564035       -1.0992000900
 H       -15.2205872573        8.6042710315        0.5655327652
 H       -12.7631956820       10.0236336616        0.1484730526
 H       -11.3152586551        9.1677719441        0.6867471935
 H       -12.6213297297        9.6268000899        1.8044837756
 H       -10.0819184105        7.1559800749        6.1680291849
 H       -11.1374219482        7.7185501896        4.8582400360
 H        -9.4572240965        8.2481027361        4.9480946147
 H        -9.3632202248        6.0389656785        1.9936177726
 H        -8.5587643464        7.4570939181        2.6655681129
 H       -10.2690113913        7.4777838725        2.4187343035
 Na       -8.6303593711        3.2196765592       -1.6010871143
