117

 C        -8.4012939010        5.6776873984        6.3114314209
 C        -8.7539911565        5.4153201916        4.8716302520
 O        -8.1369757423        4.6258640252        4.1570948587
 C        -9.7556840735        6.4877839060        4.1117789809
 C       -11.2042947399        5.7938151943        3.8828466322
 O       -11.8607630228        5.4834131200        4.8377858794
 C       -11.8818083012        5.7038971655        2.4525599305
 C       -12.5591234823        7.0500229778        2.1570526714
 C       -13.2040316445        7.0772055193        0.7843971757
 O       -13.9313096668        6.1411801209        0.4814570146
 C       -13.0761186973        8.3406411283       -0.1707606513
 C       -12.1492549517        7.7122172145       -1.4733709616
 O       -11.0742111263        8.2293580585       -1.6439720312
 C       -12.5888110159        6.3859393042       -2.1155966671
 C       -11.8238925842        6.0804853903       -3.4346821958
 C       -10.4302229391        5.4660766225       -3.1258214827
 O       -10.2666982447        4.7714763017       -2.1238091521
 C        -9.2425065280        5.7661287145       -4.1087276889
 C        -8.4507272950        4.4646532642       -4.3241611883
 O        -7.6080223636        4.1354262366       -3.5149106407
 C        -8.8237274093        3.6823459900       -5.5502959171
 C        -8.3248177223        2.1927890123       -5.4060849125
 C        -8.8648912867        1.5639167388       -4.1558625400
 O        -9.7761357373        2.0438456238       -3.4924678004
 C        -8.2167377857        0.1767420542       -3.7330288217
 C        -8.8887029832       -0.0881846118       -2.2623103038
 O        -8.6097143167        0.6175075171       -1.3069442532
 C        -9.8097657551       -1.2727003771       -2.0637789286
 C       -10.0641411714       -1.7226047320       -0.5409927187
 C       -11.2150473702       -0.8701582016        0.0722101280
 O       -11.8444161674       -0.1222671670       -0.6545716333
 C       -11.5177805179       -0.8127945311        1.6458579613
 C       -10.1259424407       -0.2039407439        2.1367112223
 O        -9.1767039054       -0.9630125239        1.9624556418
 C       -10.0667376543        1.2250348460        2.7436885734
 C        -8.6891314063        1.8102954404        2.8554440460
 C        -8.1839814112        2.6002952170        1.6070355136
 O        -8.9901120973        3.3547799247        1.0576395641
 C        -6.5855199277        2.6701256010        1.4001097320
 C        -6.2660052560        3.9268090298        0.5755993914
 O        -6.9542256150        4.3585010489       -0.3374937545
 C        -4.8761675200        4.5385868189        0.7413500911
 C        -5.8223710776        2.6465741403        2.7330014476
 C        -6.1140647859        1.4257234088        0.5999062791
 C       -12.7687195463       -0.0618199199        1.9348316146
 C       -11.6054070605       -2.2620200081        2.2210576987
 C        -8.5902240125       -0.9279931061       -4.7199374095
 C        -6.6980304717        0.3128228456       -3.4987878016
 C        -9.6794116335        6.3664416807       -5.4626749443
 C        -8.2010571836        6.6925002195       -3.3506612366
 C       -14.4452981918        8.8931020166       -0.7686569970
 C       -12.2614120678        9.5027927897        0.3726490804
 C       -10.0810871410        7.7208283053        4.9472777963
 C        -9.0179949521        6.8840563872        2.8134731041
 H        -7.9189766914        4.7448898673        6.6510462869
 H        -9.1051718344        6.0045243477        6.9745666350
 H        -7.5877099275        6.3984993095        6.1587790711
 H       -12.6781130989        4.9686142768        2.4408996287
 H       -11.2230820778        5.5622834424        1.6398781501
 H       -12.0115478930        8.0044661420        2.4280421527
 H       -13.4310905693        7.0640530718        2.8331164402
 H       -13.6893681472        6.4592611992       -2.2664668763
 H       -12.3994706831        5.6378796414       -1.3321165323
 H       -11.6609672306        7.0603792749       -3.8072387424
 H       -12.4665399647        5.5754586244       -4.1717539234
 H        -8.3539321445        4.1960586623       -6.3765201246
 H        -9.8826748095        3.7556872956       -5.6779391145
 H        -7.2378970562        2.0545247171       -5.3348163763
 H        -8.7588920131        1.6641460679       -6.2460552508
 H        -9.3879980268       -2.1770926130       -2.5593817768
 H       -10.7761024478       -1.0739752987       -2.4972137875
 H        -9.1621365070       -1.5586058641        0.0840747891
 H       -10.3458381522       -2.7932050618       -0.5955700462
 H       -10.4702793708        1.1698582620        3.7909815823
 H       -10.6879868115        1.8908698161        2.1480346473
 H        -7.9971301064        1.0649100154        3.1225485331
 H        -8.6198536985        2.5704616023        3.6973686190
 H        -4.7607092075        4.9288508313        1.7434744095
 H        -4.8182987861        5.2460394100        0.0051606427
 H        -4.1750296721        3.8085983159        0.4593942711
 H        -4.8064941909        2.8009200044        2.3962613507
 H        -5.9712676929        1.7068544615        3.2062304425
 H        -6.0274243099        3.5245365103        3.3643041222
 H        -5.1640004363        1.6576788686        0.0646253339
 H        -6.7918362395        1.0820398275       -0.1941719211
 H        -5.9271923201        0.5565754722        1.2502156309
 H       -13.5328827543       -0.7799542885        2.2495243739
 H       -13.0838313116        0.5945790700        1.1115193966
 H       -12.6558325455        0.7137152192        2.7164180911
 H       -11.8313782042       -2.3175403134        3.2802997705
 H       -10.6759126723       -2.7962611167        2.0395251977
 H       -12.4024806815       -2.8756600674        1.7408875171
 H        -9.4423566337       -1.5657764994       -4.5909160215
 H        -7.7137157880       -1.5734626691       -4.7484006569
 H        -8.7556327395       -0.5594451427       -5.7393722053
 H        -6.3791258632       -0.6637712754       -3.1671995378
 H        -6.4688474086        0.9528282197       -2.6724045572
 H        -6.0763265481        0.6168623625       -4.3850707377
 H        -8.8911916323        6.3087998057       -6.1729092044
 H       -10.0581315969        7.4110627998       -5.3076319466
 H       -10.4315756944        5.7757039622       -5.9255589478
 H        -7.2891416260        6.6475075178       -3.9022882122
 H        -8.1372356386        6.3735643411       -2.3224468462
 H        -8.5806077885        7.6837346175       -3.3761048425
 H       -14.9098559643        8.1321090386       -1.3721872394
 H       -14.3180089525        9.7721092562       -1.3846559722
 H       -15.1958110101        9.2287016160       -0.0092201413
 H       -11.8196221754       10.0891349165       -0.4662651215
 H       -11.3540816949        9.1782838921        0.8173524011
 H       -12.6150423405       10.1733255674        1.1171621077
 H       -10.6386563115        7.3974132352        5.8240752491
 H       -10.6656044011        8.4360760762        4.3800908320
 H        -9.1609348882        8.2849053368        5.2059725599
 H        -8.6098726848        6.0978373596        2.1820646606
 H        -8.1833540051        7.4227174665        3.1561578568
 H        -9.5702622524        7.5864507841        2.2026147209
 Na       -8.7312323116        3.3775190022       -1.4049274169
