117

 C       -11.6158990875        7.5343709769        1.0855229122
 C       -11.3737242890        6.2922009891        1.8971548152
 O       -11.4582539025        5.2497122229        1.2719649982
 C       -11.3345518035        6.3007347641        3.4470027767
 C       -12.2795466789        5.1274794954        4.0233994989
 O       -11.8746704028        3.9842012750        4.0793252790
 C       -13.7087194696        5.5141634745        4.3708592520
 C       -14.7542052759        4.4203712924        3.9925700289
 C       -14.8490239591        3.7880845378        2.6196508493
 O       -14.3212101675        4.3193402907        1.6365452458
 C       -15.4745571532        2.2813259418        2.5936717441
 C       -14.2466616507        1.4310519634        2.9210208367
 O       -13.2110159257        1.9686152948        3.2900936193
 C       -14.2703238150       -0.1195393832        2.7818746234
 C       -12.7997024926       -0.7872544719        2.6895207540
 C       -12.3456807655       -0.2891976313        1.2728400803
 O       -12.4935065661        0.9168247436        1.0579419892
 C       -11.9934978116       -1.3727746713        0.0836771422
 C       -10.6346126109       -2.0439966574        0.4875195354
 O       -10.6940650640       -3.0410018846        1.0962556257
 C        -9.2836479584       -1.3671731291        0.0400466178
 C        -8.3934858341       -0.9802633130        1.2188178857
 C        -8.6711317633        0.4651465167        1.6786097387
 O        -9.8424491161        0.7776702470        1.7558282867
 C        -7.5843218300        1.4731958785        1.8965181457
 C        -7.8019277154        2.8597999385        1.2152560768
 O        -8.8740507850        3.4139382099        1.1355047043
 C        -6.5808410662        3.3664022744        0.4438142323
 C        -6.8124901236        2.9578124134       -1.0333694666
 C        -5.4902023882        2.9748908060       -1.8891217059
 O        -4.5522029899        2.4954482424       -1.3391918516
 C        -5.4295545487        3.5331082551       -3.3443283069
 C        -6.4484556830        4.7090044082       -3.2886719804
 O        -6.9415065842        5.2758340303       -2.3244433338
 C        -6.8363924419        5.1842927238       -4.7573352942
 C        -7.2801448115        6.6765926263       -4.8236733636
 C        -7.6607911468        7.1550552815       -6.2830603263
 O        -8.2926455870        6.5137809964       -7.0100551935
 C        -7.2409915754        8.7424078182       -6.6617942439
 C        -6.0009801855        8.7342626816       -7.6479535151
 O        -4.9549461922        8.1449644088       -7.4390628178
 C        -5.9284757827        9.7544305596       -8.7220816091
 C        -8.4338772143        9.3531952431       -7.3187189767
 C        -6.9209823754        9.5113850270       -5.2995137282
 C        -3.9208849136        4.0649817275       -3.7171869783
 C        -5.8135666899        2.4053361247       -4.2510014446
 C        -7.5184272161        1.8923984505        3.5180136940
 C        -6.1500418704        0.8026924929        1.7923502683
 C       -13.1211737489       -2.3799785165        0.0150360618
 C       -12.0388322894       -0.4683218771       -1.2319204410
 C       -16.7444989334        2.1132957171        3.5325226196
 C       -15.9501926469        1.9575018140        1.1649596523
 C        -9.8422049399        5.8103277026        3.7007349689
 C       -11.6707158129        7.6460883501        4.1853023182
 H       -10.7658773439        8.2126714505        1.0899292564
 H       -12.5713914877        7.9833822085        1.5062585131
 H       -11.6645786204        7.1209609677        0.1036803928
 H       -13.7810247556        6.4434474022        3.7840427266
 H       -13.7491041096        5.9305949173        5.3750267314
 H       -15.7984513110        4.7401068553        4.1226397043
 H       -14.5840937971        3.6121365974        4.6793048649
 H       -14.9468292547       -0.4816179177        2.0155461161
 H       -14.7702323007       -0.2869971673        3.7323855030
 H       -12.8349048658       -1.8664277864        2.6733569630
 H       -12.1956561863       -0.2919242055        3.4098520446
 H        -9.4554283780       -0.5602239360       -0.6782843134
 H        -8.7203129893       -2.0600028181       -0.6230955586
 H        -7.3325255153       -1.3202147853        1.0114968778
 H        -8.6881805048       -1.5735835966        2.1005456112
 H        -5.6570990087        3.0317282842        0.8999773925
 H        -6.6069172426        4.4114230288        0.4616601919
 H        -7.7949380462        3.4072513251       -1.2611239579
 H        -7.3471460555        2.0292014930       -0.8921431645
 H        -7.5366358476        4.4593373712       -5.1561528285
 H        -5.9112993754        5.0863577188       -5.3220258037
 H        -6.4413308621        7.2453529483       -4.3583422933
 H        -8.2538612581        6.7754598182       -4.2938634150
 H        -6.0519929451       10.7670387187       -8.3922209288
 H        -6.6849196390        9.5232031565       -9.5616705363
 H        -4.9608809490        9.8349556811       -9.1067827925
 H        -9.3437925403        8.7980536438       -7.4153485530
 H        -8.3426400775        9.4996718247       -8.4120918311
 H        -8.7735624795       10.3388062202       -7.0045251918
 H        -5.8864056307        9.1825917018       -5.0601258961
 H        -7.6013079629        9.3997763201       -4.4891933308
 H        -6.9993506457       10.5277576976       -5.7436479056
 H        -3.7832724171        4.2260192199       -4.7236984380
 H        -3.2111037978        3.2569353037       -3.4368373700
 H        -3.9098798195        5.0555770790       -3.3102124549
 H        -6.9160202019        2.4363614087       -4.4943910637
 H        -5.7490075296        1.4846803260       -3.6198777146
 H        -5.2140777830        2.2656023620       -5.1397460987
 H        -6.6337592374        2.4010458223        3.8393641726
 H        -7.5984620684        0.9156909202        4.0710033775
 H        -8.4541861241        2.4358771034        3.7227332710
 H        -5.5124244459        1.5121494884        2.2279145549
 H        -5.7915124946        0.4616941170        0.8222110038
 H        -6.2331943557       -0.0783993167        2.3908273416
 H       -14.1071009826       -1.9179075772        0.3450778819
 H       -12.9194609272       -3.2139185913        0.7000692122
 H       -13.1495105473       -2.7171662540       -1.0412794564
 H       -12.1646921351        0.6232012303       -1.0047791810
 H       -12.9294150803       -0.7823049921       -1.8830970346
 H       -11.0939081420       -0.5774803532       -1.8032066167
 H       -16.7042468611        1.1304100136        4.0071918394
 H       -17.6958443790        2.0897396033        2.9527436484
 H       -16.7000843157        2.9041477491        4.2510252290
 H       -16.8689535353        2.3328221757        0.8053222024
 H       -16.0087408733        0.9017456507        1.0344524834
 H       -15.1704613746        2.3933948434        0.4650907754
 H        -9.3782942874        6.1037248082        2.7999101634
 H        -9.7445927017        4.6886635348        3.7864519276
 H        -9.3615384869        6.2034316562        4.5773483934
 H       -11.4218122118        7.3631337881        5.1871027731
 H       -12.6772672272        8.0252229814        3.9780589029
 H       -10.9052974675        8.4511276618        3.9515051665
 Na      -11.3446206334        2.9417708977        1.6517291692
