117

 C        -9.3824634654        5.9449070297        6.4587987960
 C        -8.9311152566        6.1126695728        5.0752229356
 O        -8.3896846754        5.2587080261        4.3958046860
 C        -9.4348635309        7.3840818138        4.2445117893
 C       -10.9783288347        6.7683168500        3.8910065742
 O       -11.6585776146        6.5077226465        4.8633686977
 C       -11.3554041998        6.4527961639        2.4033337279
 C       -11.6414399189        7.5880865174        1.4061003292
 C       -12.7697595464        7.3114840204        0.4217705377
 O       -13.5830354724        6.4345748795        0.6380084746
 C       -12.8821972935        8.2371723627       -0.9090091449
 C       -11.9605708404        7.4990768125       -1.9638802850
 O       -10.7626027642        7.6983279712       -2.1615599273
 C       -12.5985975679        6.4105415453       -2.7733503415
 C       -11.6300443214        5.5580767666       -3.6504056495
 C       -10.2880234932        5.1971920417       -3.0699404177
 O       -10.2714412161        4.6151776183       -1.9972231516
 C        -8.8838910422        5.4731643109       -3.7044752969
 C        -8.5679017573        4.0290921171       -4.1970630673
 O        -7.8465130184        3.3051669717       -3.5822285172
 C        -9.2735684051        3.5721995932       -5.4464373081
 C        -9.1525172589        2.0583056636       -5.5403430424
 C        -9.6754191962        1.3447353905       -4.2468695871
 O       -10.5490560571        1.8776158170       -3.6011560086
 C        -9.1150480197       -0.0598697712       -3.8461420208
 C        -9.2110602185       -0.2658453714       -2.3359613132
 O        -8.8582457648        0.6898161268       -1.5936842356
 C        -9.6403249407       -1.6389966306       -1.8546056934
 C        -9.6953765684       -1.5477412526       -0.3216528618
 C       -10.9668266643       -0.7895864488        0.1151144569
 O       -11.7371218333       -0.3770210910       -0.6764039825
 C       -11.2097345389       -0.6937225763        1.7252225068
 C       -10.0448737699        0.1436100607        2.2918239297
 O        -8.9212767245       -0.3325481432        2.3275744245
 C       -10.2739470621        1.4583179850        2.9824787245
 C        -8.9162210799        2.2498302760        3.1846609513
 C        -8.2370316859        2.5694356465        1.8606674537
 O        -8.9178758835        3.0417976282        0.9169118719
 C        -6.6472458814        2.2767412138        1.7000550425
 C        -6.0454155477        3.4799514515        0.8044306304
 O        -6.2568337973        3.5672198839       -0.4066886904
 C        -5.3936444665        4.5502859540        1.6099054698
 C        -5.9767301543        2.2477115820        3.0650374408
 C        -6.3435314991        1.0734848808        0.6992120692
 C       -12.5710302622       -0.0498981036        1.9528842567
 C       -11.2619794771       -2.1610552921        2.2452753533
 C        -9.9637441362       -1.1073092280       -4.7760976270
 C        -7.5862434705       -0.3191322752       -4.1643527807
 C        -9.0095644442        6.4860293070       -4.8458933156
 C        -7.7944047999        5.8240016629       -2.6328457091
 C       -14.3266613816        8.3897308389       -1.2966075960
 C       -12.2626373298        9.6966434317       -0.7084888535
 C        -9.5070916205        8.6446893679        5.1212267939
 C        -8.6081520683        7.7199112293        3.0230511180
 H        -9.5578938563        4.9054515494        6.6268279480
 H       -10.2556218096        6.5906020587        6.7756092025
 H        -8.5066837025        6.2117972796        7.0622480102
 H       -12.3057612061        5.8461936631        2.3661899617
 H       -10.6152206355        5.7062778920        2.0816727284
 H       -10.7315559035        7.8126579212        0.8167693635
 H       -11.8994346304        8.4131725561        2.0424586587
 H       -13.3181975725        6.8922218922       -3.4338533415
 H       -13.1990184223        5.7663208058       -2.1127230708
 H       -11.5845450998        6.1262765515       -4.5591795431
 H       -12.1870001311        4.6003134729       -3.9198182981
 H        -8.9792675258        4.1052978752       -6.4310887054
 H       -10.2970361076        3.8318932418       -5.2795203423
 H        -8.1156283758        1.7451616289       -5.7757653415
 H        -9.7003009355        1.6476337276       -6.3917143877
 H        -8.9870174909       -2.4510656613       -2.2575457084
 H       -10.6320340692       -1.9646818853       -2.0896260247
 H        -8.8648864505       -0.9954880176        0.0598440486
 H        -9.5602654784       -2.4772513176        0.2249108731
 H       -10.6949380867        1.2565229935        3.9975013533
 H       -11.0229950292        2.0503308390        2.5152573697
 H        -8.2964990727        1.6876872495        3.8731744403
 H        -9.2453040548        3.2302927310        3.6014230979
 H        -6.1720883250        5.0310993740        2.1909025978
 H        -5.0836171480        5.2600481606        0.8035547146
 H        -4.5530756241        4.1586653484        2.2903970423
 H        -4.9248969988        2.2526859511        3.0159446447
 H        -6.2842619345        1.3739076555        3.6052585054
 H        -6.2036502906        3.0632128513        3.6779586755
 H        -5.2363892329        1.0244215790        0.4688832578
 H        -6.8705880986        1.2670179946       -0.2537549969
 H        -6.5142843009        0.0873576267        1.0878098494
 H       -13.4302451947       -0.6278923140        1.5311913730
 H       -12.6043771751        0.9954352093        1.6092244515
 H       -12.6966996634       -0.0966882496        3.0533010328
 H       -11.8765226931       -2.2922057578        3.0808866064
 H       -10.2664547642       -2.5563213919        2.5076433279
 H       -11.7016793816       -2.8032538044        1.5390986836
 H       -11.0101766574       -1.0973635209       -4.6364590377
 H        -9.5624872810       -2.0860497065       -4.7069954412
 H        -9.8646218447       -0.8694554032       -5.8021553299
 H        -7.2131129625       -1.2837576457       -3.7868206301
 H        -7.0266967310        0.4589101698       -3.6429234696
 H        -7.3650929691       -0.2764255635       -5.2045610310
 H        -7.9824096924        6.8413440623       -5.1995479311
 H        -9.5184003670        7.4006181526       -4.5247453705
 H        -9.4203297546        6.0418820466       -5.8237605014
 H        -6.8972388545        6.2335033386       -3.1606363866
 H        -7.4676224346        4.9497851090       -2.0976622086
 H        -8.2948230060        6.5243124432       -1.9555897400
 H       -14.7842838331        7.3910897063       -1.3939202139
 H       -14.3654606443        8.7479778655       -2.3038211626
 H       -14.9339884480        9.0653631352       -0.6968947936
 H       -12.3319254375       10.3645243808       -1.5549607379
 H       -11.1872246786        9.7719399549       -0.6373438745
 H       -12.7723260851       10.1870296654        0.1445783484
 H        -9.7980325169        8.4082317775        6.0957607442
 H       -10.0804433403        9.4652062397        4.6943936545
 H        -8.4807556429        8.9899755771        5.2752793642
 H        -8.6030555654        6.7903726021        2.4798792224
 H        -7.6126548227        8.0198123133        3.2969883594
 H        -9.1318998050        8.4235085526        2.3864505271
 Na       -8.4871171048        3.0877663852       -1.4085478580
