117

 C        -9.1728759289        5.7472711634        6.5405679732
 C        -8.8358052116        5.9621054661        5.0810691442
 O        -7.9094103752        5.3400249445        4.5540105988
 C        -9.6646558258        6.9366304281        4.1596844306
 C       -11.0605883786        6.3575823868        3.8359818314
 O       -11.8428516303        6.1345866922        4.7319119084
 C       -11.4379358889        6.2591798976        2.3571108771
 C       -12.0958724181        7.5544806621        1.8965252647
 C       -12.8996287421        7.3884940897        0.5465760504
 O       -13.6059982317        6.4089821375        0.5005530108
 C       -12.8957970374        8.4028797972       -0.6648717116
 C       -11.9822160613        7.4750518037       -1.6618708663
 O       -10.8257226485        7.7971998841       -1.6687486991
 C       -12.6332832821        6.2157784925       -2.3129621981
 C       -11.7454569479        5.9493284745       -3.5840673541
 C       -10.4130307036        5.3779570256       -3.1344696039
 O       -10.3779185111        4.6616351354       -2.1234046595
 C        -9.1011253238        5.6295143060       -3.9766271507
 C        -8.5445904060        4.2874792180       -4.3955718814
 O        -7.8392275610        3.6103658775       -3.6473182975
 C        -8.9887800979        3.6445487293       -5.7380351551
 C        -8.7888525493        2.1100576070       -5.7156198986
 C        -9.3892204752        1.4745796945       -4.3603109275
 O       -10.3014973412        2.0254710048       -3.8078576897
 C        -8.7433815292        0.0563239653       -3.9432460097
 C        -9.1160185391       -0.0806914402       -2.4237607864
 O        -9.0767472987        0.8152366199       -1.6247407506
 C        -9.4757364447       -1.4617929171       -1.8823427043
 C        -9.5527045264       -1.5451096193       -0.3447849938
 C       -10.7849810210       -0.7238332629        0.1968552691
 O       -11.5412364890       -0.2078831924       -0.6155339410
 C       -11.1929651506       -0.6235216992        1.7068356160
 C       -10.0748953314        0.0791700223        2.5493019656
 O        -8.9638996538       -0.4709024980        2.5104726371
 C       -10.2662408885        1.4921168696        3.1311729941
 C        -8.8706653203        2.0747359931        3.2301479699
 C        -8.2163049182        2.1240376520        1.8251445214
 O        -8.9363953819        2.1839128884        0.8691543232
 C        -6.6533367374        2.2518053545        1.6797937087
 C        -6.2942557039        3.4630724861        0.7423344285
 O        -6.8439108320        3.6993553895       -0.2994544778
 C        -5.0555539217        4.2880330470        1.1471737668
 C        -5.9062220761        2.1728100593        3.0333795006
 C        -6.0603236747        1.0369166917        0.8783668711
 C       -12.5369983656        0.1142196268        1.7889510179
 C       -11.3784940717       -2.0361222866        2.4364461188
 C        -9.4247624968       -0.9876107348       -4.8985597857
 C        -7.2070224305        0.2178881299       -3.9047328911
 C        -9.2112322437        6.5809298198       -5.1957483527
 C        -8.0101710488        6.2413523609       -3.0122129177
 C       -14.4460980180        8.5222003371       -1.0112116939
 C       -12.3205025273        9.7493842131       -0.4369179369
 C        -9.9316996609        8.2768125927        4.8355382457
 C        -8.8885835046        7.2647686904        2.8759008505
 H        -8.3097294605        5.1062892387        6.8407042829
 H       -10.0725135327        5.1802326117        6.6054785946
 H        -9.2045683638        6.6451777602        7.2203937346
 H       -12.2489332733        5.4846060784        2.2679123788
 H       -10.5988885424        5.8676830071        1.7437296801
 H       -11.2968109215        8.2792842189        1.8571615938
 H       -12.6940014155        7.9826280515        2.6868721358
 H       -13.6747961216        6.4631826147       -2.5605596142
 H       -12.6244820740        5.4376932523       -1.5667444519
 H       -11.5556248579        6.9939875673       -3.8790866945
 H       -12.2341195262        5.3474912719       -4.3743924390
 H        -8.3742213830        4.0547435723       -6.5389457551
 H       -10.0877939598        3.8683327769       -6.0119012048
 H        -7.7373783877        1.8022171213       -5.8295011859
 H        -9.3546537294        1.7357737287       -6.5616712997
 H        -8.8169814946       -2.2581122678       -2.2674560248
 H       -10.4873395913       -1.7859530001       -2.1566575830
 H        -8.6179711583       -1.1862572710        0.0993294235
 H        -9.6613927505       -2.5632559369       -0.0604032604
 H       -10.8307278281        1.4161469178        4.0627006271
 H       -10.9088534599        2.0749907539        2.4740854309
 H        -8.2956755000        1.4478420174        3.8650593747
 H        -8.8536857913        3.1357955182        3.6317140562
 H        -5.2961020782        4.7978076562        2.1579986275
 H        -5.0628017777        5.0902398868        0.3957435715
 H        -4.2016387415        3.6294403924        1.2195933561
 H        -4.9015181468        2.4864539383        2.9209208040
 H        -5.8317733705        1.2636559996        3.5163289922
 H        -6.3919770843        2.8632810453        3.7138646787
 H        -5.1235754843        1.3525598457        0.4136147440
 H        -6.7892830398        0.7454776668        0.1030449700
 H        -5.8380647787        0.1066072217        1.4333010550
 H       -13.4238238405       -0.4714730953        1.6013254762
 H       -12.5995153222        0.8755269306        1.0067265706
 H       -12.6382274012        0.5489345820        2.7908784800
 H       -11.7443154582       -1.9641929440        3.4408130375
 H       -10.4374050002       -2.5178705148        2.5054285217
 H       -11.9887864300       -2.7781499674        1.9190759275
 H       -10.3091239351       -1.5002165842       -4.6594787707
 H        -8.7133900631       -1.7858839614       -4.9340020076
 H        -9.4048763436       -0.6242776371       -5.9115535782
 H        -6.7547134878       -0.7327781847       -3.7203286063
 H        -6.9636316076        0.9181389896       -3.1370477040
 H        -6.7262151339        0.5694921873       -4.8655381828
 H        -8.2069994234        6.6420665055       -5.6478026618
 H        -9.5021805631        7.6607737189       -4.8766996433
 H       -10.0704060803        6.2665996599       -5.8111626688
 H        -7.0010714549        6.0986648650       -3.4300550378
 H        -8.0214630817        5.6686645259       -2.0664339900
 H        -8.2483547204        7.3104175486       -2.9962135944
 H       -14.9107399659        7.6473991390       -1.4084737814
 H       -14.5189924939        9.2659715881       -1.8013414416
 H       -15.1059922822        8.8522170871       -0.1905001313
 H       -12.5986263872       10.5122433182       -1.2243907424
 H       -11.2622305619        9.6663894393       -0.1898586444
 H       -12.6636370622       10.2402569224        0.4672301339
 H       -10.1677716069        8.0756491529        5.8704932979
 H       -10.8311970909        8.6878513887        4.4646254813
 H        -9.1003182720        8.9765794044        4.7974137011
 H        -8.5724680038        6.3626765422        2.3026124288
 H        -8.0221940524        7.8852539771        3.1027578904
 H        -9.5165812860        7.8998451892        2.2292197033
 Na       -8.7764581147        3.0963095925       -1.5155404475
