117

 C       -11.5854005616        7.6022688897        1.0852254721
 C       -11.4905584737        6.1915675964        1.8734493501
 O       -11.1948952028        5.1492468749        1.2768858966
 C       -11.2844737117        6.3146845633        3.4792505757
 C       -12.2337698369        5.1965141786        3.9819337151
 O       -11.8931882122        4.0136930322        4.1130820781
 C       -13.7444407256        5.6149726044        4.3777945146
 C       -14.8651759915        4.5192983280        4.2119611969
 C       -14.8767151766        3.8111847397        2.7690194849
 O       -14.2815823630        4.2805983945        1.8453483010
 C       -15.4988977333        2.3083882008        2.6934854011
 C       -14.2181355986        1.3978392484        3.0891987556
 O       -13.1964639780        1.9569479442        3.2865149563
 C       -14.1016211527       -0.2340261805        2.9488170012
 C       -12.7736884881       -0.6765024133        2.5988110428
 C       -12.4434415876       -0.1969564279        1.1628074979
 O       -12.5314424804        0.9351286814        0.8036896601
 C       -12.0768959338       -1.2624385733        0.0733338572
 C       -10.6750209616       -1.9812206639        0.5432273415
 O       -10.6054477269       -3.0912150834        1.1008039955
 C        -9.3580087428       -1.3275307380        0.1924719729
 C        -8.5239513291       -0.8455205941        1.3697232348
 C        -8.7686188002        0.6132671682        1.7138486797
 O        -9.9122357119        1.0961530917        1.7658844696
 C        -7.5416795659        1.4604578591        1.9674941030
 C        -7.7852918300        3.0057049065        1.1277416218
 O        -8.9329045679        3.4201933275        0.9422218386
 C        -6.6933962173        3.5501482552        0.3584617045
 C        -6.7975422355        2.9729179933       -1.0714538562
 C        -5.5365905005        2.8826425761       -1.7209713014
 O        -4.4757637550        2.4025468848       -1.3150105731
 C        -5.4913339132        3.4353640254       -3.2421093890
 C        -6.3758956495        4.7610670905       -3.4266810728
 O        -6.6792067016        5.2941560424       -2.4013353966
 C        -6.8554461443        5.2340879208       -4.8455601311
 C        -7.3256924379        6.6669625589       -4.7636329948
 C        -7.4985712298        7.0723435772       -6.1978482501
 O        -8.1399984806        6.3563781300       -6.9928584590
 C        -7.1551075923        8.6020029581       -6.7453834170
 C        -5.8707172168        8.7547394294       -7.6161619457
 O        -4.8646525189        8.0685233783       -7.3713072673
 C        -5.8825870958        9.8295777627       -8.8825188709
 C        -8.5048502600        9.0346259132       -7.3043959065
 C        -6.8963547884        9.3416123029       -5.4309562035
 C        -4.0344581973        3.8483423578       -3.5935408197
 C        -5.7895600584        2.2550740767       -4.3112747056
 C        -7.4739245863        1.8483241354        3.4917817287
 C        -6.1461711003        0.6510605902        1.7224063977
 C       -13.2403630082       -2.2922271759        0.0078690061
 C       -12.0406586267       -0.5160515124       -1.3052484703
 C       -16.8611127401        2.0702504049        3.5548620643
 C       -15.9705958123        2.0079949342        1.1755855746
 C        -9.7034708686        6.0866012962        3.6821613112
 C       -11.7563939428        7.6739252854        3.9888902352
 H       -10.7060796974        8.2034417820        1.3721614860
 H       -12.5547072445        8.0976291095        1.2993321365
 H       -11.3596655910        7.3271102953       -0.0199679968
 H       -13.9412485525        6.5370783245        3.8562950558
 H       -13.5955401888        5.9888944202        5.3284352363
 H       -15.9278017873        5.0096548870        4.0754811330
 H       -14.8744881158        3.8888653609        5.0362634327
 H       -14.8585289727       -0.5916310316        2.2445774941
 H       -14.3321795054       -0.6288762055        3.9293705415
 H       -12.7470789031       -1.7522659006        2.5550791078
 H       -12.0509866022       -0.1160102552        3.2848024588
 H        -9.5110235498       -0.5400805059       -0.4735015930
 H        -8.7086292649       -1.9678541493       -0.4258198110
 H        -7.5177256314       -0.9268976995        0.8770351725
 H        -8.4579648958       -1.3708798113        2.2652863106
 H        -5.7018034239        3.2903938952        0.8185447606
 H        -6.7243480640        4.6073547234        0.3089707320
 H        -7.7459930695        3.2878865876       -1.5484242399
 H        -7.2535076542        1.9413747256       -0.8830565369
 H        -7.5932524178        4.4889832533       -5.0125850932
 H        -6.1047915767        5.0406077105       -5.5605086778
 H        -6.5778484144        7.2035333762       -4.1532997784
 H        -8.3165586414        6.6764596683       -4.2962933995
 H        -6.2265868372       10.8708187781       -8.6072913339
 H        -6.4039656170        9.4963843970       -9.7501983435
 H        -4.8835258982       10.1629089334       -9.1048794951
 H        -9.1334135422        8.3646301225       -7.9851961646
 H        -8.4193081542        9.8590254291       -8.0824086745
 H        -9.2710936541        9.5453195600       -6.6410575888
 H        -6.1095139822        8.7919712862       -4.9527291859
 H        -7.8313842799        9.3316561610       -4.8108666799
 H        -6.7440376322       10.3610651953       -5.7055072012
 H        -3.8670403579        3.9150189102       -4.6678993518
 H        -3.3586562418        3.1557746001       -3.2362824809
 H        -4.0787705191        4.9019366018       -3.2826167468
 H        -6.7679541810        1.8439690889       -4.1316537187
 H        -5.0867293779        1.4117140373       -4.2004022579
 H        -5.6933778911        2.6689185757       -5.4173582058
 H        -6.4902162197        2.2560452081        3.7890612352
 H        -7.5328122473        0.7850084835        3.9537930963
 H        -8.3045254973        2.4804356922        3.8829330073
 H        -5.3250239525        1.1572705298        2.1224691284
 H        -5.9591465739        0.4137593448        0.7019996006
 H        -6.2740328060       -0.2957607215        2.2098385006
 H       -14.1268984488       -1.7825148546        0.3848095912
 H       -13.0937097983       -3.1347275719        0.6466891076
 H       -13.3758121478       -2.5662107143       -1.0232467074
 H       -11.6798025238        0.4940332459       -1.4383330899
 H       -13.0456742037       -0.5750664316       -1.7452745765
 H       -11.3192883057       -1.2711386946       -1.7984458103
 H       -16.6852244046        1.0861431513        3.8718376204
 H       -17.7085121928        1.9608175004        2.9389342255
 H       -16.9597062549        2.7276818095        4.3725341801
 H       -16.8413606803        2.6628733089        0.8825639403
 H       -16.3283304165        0.9854566076        1.0716423026
 H       -15.2020820583        2.1862499122        0.4127344531
 H        -9.2355803179        6.4378660189        2.8048756745
 H        -9.4883224124        5.0233360571        3.8148642788
 H        -9.3084503169        6.5675623151        4.5797649158
 H       -12.1355992165        7.6406760610        5.0060132710
 H       -12.3829816623        8.1371231750        3.2790929578
 H       -10.8217736934        8.2451967387        4.0534280947
 Na      -11.6178374126        2.9151893319        1.6287530777
