117

 C        -9.5686946670        5.6392577887        5.8125320545
 C        -9.0888154346        6.2045202351        4.4580466296
 O        -8.7240336172        5.4516937206        3.5425113056
 C        -9.0530544147        7.7144850834        4.3459757942
 C       -10.4498597460        8.3307576153        3.7356352512
 O       -10.9729493022        9.3150006655        4.2380703314
 C       -11.1669892038        7.5706901911        2.6522019349
 C       -11.2936935707        8.3078022826        1.2623084000
 C       -12.3173705545        7.4569733628        0.3838947527
 O       -12.7884625550        6.4371056600        0.8563004998
 C       -12.5613997119        7.9171380070       -1.1268380566
 C       -11.7080017813        7.0858520164       -2.0095141535
 O       -10.5132596267        7.2589029677       -2.1786493427
 C       -12.2540845274        5.7409079938       -2.4760953769
 C       -11.4075399586        5.0959182843       -3.6554167591
 C        -9.9607022693        4.9819107289       -3.1885590080
 O        -9.6921555684        4.6793433519       -2.0038292750
 C        -8.6951607293        5.3014222549       -4.1286120053
 C        -8.0924551769        3.8691336766       -4.3330341160
 O        -7.1827437816        3.4236266037       -3.6278168627
 C        -8.5071532539        3.0564878677       -5.5965078695
 C        -8.4910438111        1.5009799857       -5.3861029011
 C        -9.4493917719        1.0859836534       -4.1952625719
 O        -9.9201238022        1.9847560386       -3.5122651215
 C        -9.6112724499       -0.3847316719       -3.7803893941
 C        -9.7821920345       -0.4545706018       -2.1615542206
 O        -9.1834128000        0.3029360476       -1.4273596235
 C       -10.5568518902       -1.6874316690       -1.6393643386
 C       -10.4755098132       -1.8457741118       -0.1010916380
 C       -11.6424479325       -1.0442917529        0.6013633948
 O       -12.4785948808       -0.5674232179       -0.1125510227
 C       -11.5097374996       -0.8359189574        2.1223145563
 C       -10.3608213148        0.0897878698        2.3884043450
 O        -9.2155712865       -0.3368781654        2.2339316526
 C       -10.5753713715        1.5737685635        2.7795402621
 C        -9.2410221568        2.1895106328        3.0656073977
 C        -8.3249878837        2.2371156092        1.8429204921
 O        -8.8589696214        2.2587717499        0.7487248050
 C        -6.7901235118        2.6576360141        1.9205125820
 C        -6.6387948934        3.9417668099        0.8778553753
 O        -6.7823182873        3.6949213515       -0.3226678656
 C        -6.6591329671        5.4262904434        1.3573638754
 C        -6.3474085469        3.0130440832        3.3538531547
 C        -5.8698384069        1.4652770774        1.4265361491
 C       -12.8693995554       -0.3096362053        2.6535578414
 C       -11.1663608748       -2.2326817237        2.7998625473
 C       -10.9305028051       -0.9105701119       -4.5659494528
 C        -8.3951083506       -1.2740077917       -4.1982089894
 C        -9.0259166220        6.0147609955       -5.4451867533
 C        -7.5851771237        6.1630094674       -3.4002127651
 C       -14.1095057554        7.7042358708       -1.4159491019
 C       -12.1618422352        9.3989115786       -1.3290216035
 C        -8.7005807068        8.4123816572        5.7068788990
 C        -7.9199625569        8.1632739023        3.3191733194
 H       -10.3941632253        5.0054185427        5.6607646804
 H        -9.8749042992        6.2928728594        6.5825420104
 H        -8.7795250554        4.9462635575        6.2454078340
 H       -12.1543881421        7.4713687047        3.1248360156
 H       -10.8193785496        6.5308678228        2.4720882845
 H       -10.3768581657        8.1961351556        0.7056716822
 H       -11.3670565726        9.3817476192        1.4683943160
 H       -13.2874202866        5.9201085852       -2.7826313465
 H       -12.2871845708        4.9820726094       -1.6993638427
 H       -11.4220751845        5.8326176117       -4.5035138620
 H       -11.8420366578        4.1617998275       -3.9384420096
 H        -7.8764313439        3.2518422409       -6.4500254478
 H        -9.5633586557        3.3978924040       -5.9263274236
 H        -7.5141044023        1.1876455905       -5.1105292786
 H        -8.8110578529        1.0168361477       -6.3002091603
 H       -10.3231207210       -2.6189630375       -2.1788066431
 H       -11.6654292565       -1.5504561491       -1.7802314606
 H        -9.4707522405       -1.5659148657        0.1883631835
 H       -10.7136397846       -2.8608592973        0.1430862885
 H       -11.2557335472        1.5965728046        3.6084257056
 H       -11.0404228758        2.1599592634        1.9301377204
 H        -8.6863738029        1.7508321352        3.9340765958
 H        -9.3802623042        3.2114071899        3.3742150999
 H        -7.3710434020        5.4644786873        2.1033212650
 H        -7.0913129974        5.9931721014        0.5491764040
 H        -5.7221378074        5.7582110721        1.6647480370
 H        -5.4832416958        3.7046493801        3.4123076985
 H        -6.3381476047        2.1049811829        3.9098241454
 H        -7.2654625635        3.5534783744        3.7790664822
 H        -4.9320826217        1.6878473716        1.8836775185
 H        -5.8421255427        1.4411844125        0.3377777934
 H        -6.1370873069        0.5290711017        1.8628211285
 H       -13.6583411362       -0.9833129263        2.4388845338
 H       -13.1253408689        0.6157689415        2.1972050795
 H       -12.7673065293       -0.2965555001        3.7188912307
 H       -10.7874801852       -2.0173475882        3.8024383340
 H       -10.3255971257       -2.7135569590        2.2303315219
 H       -12.0689090306       -2.8358996216        3.0070649767
 H       -10.5117722290       -1.1086498263       -5.5516868916
 H       -11.8266364150       -0.2725312411       -4.5835876942
 H       -11.1678696813       -1.8467330693       -4.0059627163
 H        -8.6882449137       -2.2949568100       -4.0857131692
 H        -7.5776097608       -0.9426216011       -3.5623684664
 H        -8.1044133802       -1.2149145648       -5.2795430332
 H        -8.0942388272        6.3687098300       -5.8466111059
 H        -9.6395821117        6.9132655441       -5.2900273472
 H        -9.4329700834        5.3753490434       -6.1974002015
 H        -6.8173300706        6.6141973676       -4.0612182171
 H        -7.0658236114        5.5557939976       -2.6901202764
 H        -8.1101104466        7.0090814604       -2.9113239433
 H       -14.4907669826        6.8372013584       -0.9244210013
 H       -14.1989054758        7.5671802751       -2.5006566626
 H       -14.6685369141        8.6048631926       -1.1394767910
 H       -12.3435098679        9.6640756186       -2.4400257112
 H       -11.1062504149        9.4535075924       -1.1604932082
 H       -12.7266429333        9.9768068537       -0.6199464164
 H        -9.5457864135        8.4955774893        6.4130822516
 H        -8.3336716243        9.4131126646        5.5625476354
 H        -7.9976996239        7.7423668581        6.2336843048
 H        -7.9354695050        7.5938431665        2.3633578530
 H        -6.9850581898        7.9558825698        3.8781240930
 H        -8.0795448089        9.2405481638        3.1180089334
 Na       -8.6090319843        2.4935742891       -1.4513222808
