117

 C       -11.5021635028        7.4964114607        1.0516724945
 C       -11.2786954532        6.1974219757        1.8133964213
 O       -11.1078496085        5.1577666878        1.2552011124
 C       -11.3347473451        6.4067265195        3.3286417864
 C       -12.2692591472        5.1920974766        3.9924337070
 O       -11.8395645607        4.1030722239        4.1069343482
 C       -13.8133877966        5.5875611408        4.2751654965
 C       -14.8699202801        4.5781087691        4.3208948816
 C       -14.8889718288        3.7775692455        3.0070833334
 O       -14.2633257788        4.1824688847        2.0786792201
 C       -15.4428310302        2.2561536348        2.7809727182
 C       -14.2674076998        1.3518829556        3.0649953761
 O       -13.2191348764        1.9058299627        3.3933614146
 C       -14.2102795251       -0.1532095290        3.2274341225
 C       -12.7804617538       -0.4796225249        2.5019669963
 C       -12.4752165001       -0.0836331740        0.9607449590
 O       -12.5867773719        1.0242204569        0.5067882947
 C       -12.1411362328       -1.3023747051       -0.0427093956
 C       -10.8363090461       -1.9246403992        0.4920270734
 O       -10.8126569149       -3.0123394102        1.1125827044
 C        -9.4783026327       -1.2060975079        0.0999150495
 C        -8.7292591027       -0.7563555682        1.4175253559
 C        -8.8389939672        0.7837551118        1.7516663955
 O        -9.9433161323        1.2988609269        1.8250297876
 C        -7.4902309022        1.6153831247        2.1148630247
 C        -7.7899681023        2.9316542945        1.1007033439
 O        -8.9508495618        3.2257138851        1.0296409268
 C        -6.7040289791        3.6310941174        0.3066047399
 C        -6.7770022102        2.7965513325       -1.0991234240
 C        -5.4575364058        2.7427156995       -1.8060390678
 O        -4.4678506013        2.3253946528       -1.2627517855
 C        -5.3853047424        3.3965119386       -3.2755369815
 C        -6.4207226118        4.5941133037       -3.4673764338
 O        -6.3562976461        5.4238276528       -2.5612732244
 C        -6.8279897564        5.0861448745       -4.8092534186
 C        -7.2712504681        6.5860724214       -4.8272392564
 C        -7.4834284859        7.0032462441       -6.2477504471
 O        -7.8852554191        6.1421816201       -7.0578840803
 C        -7.1900617692        8.5027715014       -6.7077307085
 C        -5.8440281684        8.6558147125       -7.6087650593
 O        -4.8480744905        8.0971464588       -7.3722570486
 C        -5.8471154222        9.6526392184       -8.7439540849
 C        -8.5138246097        8.8201260854       -7.4633471337
 C        -6.7646603518        9.4982429633       -5.5058930467
 C        -3.9342177398        3.7742628909       -3.5237117105
 C        -5.8888990627        2.1417825182       -4.3141865488
 C        -7.5514202778        1.9344227917        3.5561880188
 C        -6.2607943655        0.9845868274        1.5297411963
 C       -13.3323105246       -2.3721285134        0.1243212380
 C       -11.8694067269       -0.7284537638       -1.3854349034
 C       -16.7132757332        2.0171965927        3.6636482117
 C       -15.7943866882        2.1396710264        1.2976433263
 C        -9.8955741912        6.2590768582        3.7261863119
 C       -11.7648630537        7.7907211702        3.8368826651
 H       -10.9469896605        8.3741498728        1.4828917811
 H       -12.5715883499        7.5553235087        1.1903714439
 H       -11.1463677596        7.4142266554        0.0082212815
 H       -14.0004885147        6.4787589830        3.7473510584
 H       -13.6815525601        6.0115055172        5.2781465069
 H       -15.8533966292        5.0674973814        4.4411282525
 H       -14.6614659468        3.9029207745        5.2233891102
 H       -15.0586514622       -0.4872914993        2.6132812690
 H       -14.2335079063       -0.5647637669        4.2636466598
 H       -12.6174908946       -1.5814316625        2.4734219281
 H       -12.0082658586        0.1765020983        2.9967269531
 H        -9.5327874476       -0.4243678493       -0.6482689280
 H        -8.8336215829       -1.8748967571       -0.3973728014
 H        -7.7784222170       -1.1039103483        1.2915180528
 H        -9.1084026985       -1.2189762458        2.3435065444
 H        -5.6441947521        3.7121189211        0.6410844584
 H        -6.9727906101        4.7455052214        0.0337935336
 H        -7.6841170702        3.1214726354       -1.5489596440
 H        -7.2418390280        1.7565645592       -0.9149241020
 H        -7.4954469086        4.3139848317       -5.1870443722
 H        -5.9086686229        4.8612734174       -5.3612643043
 H        -6.5314961329        7.1385704225       -4.2662611524
 H        -8.2094467477        6.6004679518       -4.2689573324
 H        -6.4300159621       10.5334132155       -8.5253663110
 H        -6.1946316191        9.2169113276       -9.6148413234
 H        -4.8491851495       10.1787083328       -8.8336343958
 H        -8.6024188354        8.6268057754       -8.5555431333
 H        -8.9060771203        9.8707644608       -7.4658676585
 H        -9.4617817699        8.3840451041       -7.0556518215
 H        -5.9159054000        9.0793207208       -5.0058993310
 H        -7.6878751015        9.5503926052       -4.8382909002
 H        -6.7134222980       10.4487547612       -5.9345959757
 H        -3.6037780635        3.9411740259       -4.6028242128
 H        -3.4232380165        2.8970772987       -3.1986381588
 H        -3.8389028873        4.6849845108       -2.9957589404
 H        -6.4164170132        1.3874877188       -3.7313284869
 H        -5.1151109537        1.6295820973       -4.9153409534
 H        -6.5559459205        2.5506505369       -5.0508428817
 H        -6.6572185586        2.6255747680        3.8233960462
 H        -7.4104488888        0.9945584191        4.0608870472
 H        -8.4999255983        2.4191621698        3.9091638418
 H        -5.3309989941        1.5966332647        1.3812695368
 H        -6.5713563421        0.6044113692        0.5846096734
 H        -6.0006505637        0.1085066313        2.1304141623
 H       -14.2157789384       -1.8760366775        0.2766931763
 H       -13.1963911237       -3.0347141412        0.9541051884
 H       -13.3554376555       -2.8847121273       -0.7912201045
 H       -10.9230039717       -0.1754283497       -1.4593795399
 H       -12.5770496112        0.0656629192       -1.5423848151
 H       -11.7788642805       -1.5154799639       -2.0966176085
 H       -16.7330574329        0.9637753489        3.8172960812
 H       -17.5426900423        2.2882986659        3.1096944048
 H       -16.5256353819        2.5381440871        4.5932929180
 H       -16.3904986877        3.0275894406        0.9663288838
 H       -16.4562750697        1.2290989311        1.0684400374
 H       -14.9366495863        2.0194787553        0.6590971341
 H        -9.2024046562        6.9395576923        3.1652282703
 H        -9.5683826950        5.2731488480        3.7025542468
 H        -9.9098632279        6.5141841876        4.7860298116
 H       -12.2527014094        7.8493361998        4.8199156872
 H       -12.3908960450        8.2276682661        3.0535655801
 H       -10.8933277197        8.3434813385        3.9183431275
 Na      -11.8153559268        2.9287980626        1.7284120219
