117

 C       -10.2652387308        5.9630796870        5.6632863962
 C        -9.3344044779        6.3853166642        4.5251509736
 O        -8.9549680474        5.5825565734        3.6742232449
 C        -8.9382697236        7.8810165028        4.3202204693
 C       -10.2370165757        8.6192924431        3.6444946346
 O       -10.6345976832        9.7318444981        3.9165178227
 C       -10.7671576294        7.7654291387        2.5751073176
 C       -11.6738755968        8.5953263101        1.5569688187
 C       -12.2060035066        7.5304001912        0.4699627491
 O       -12.2880148314        6.3550317489        0.7593290673
 C       -12.5335355148        7.9798074447       -0.9366850308
 C       -11.6365064489        7.2324519524       -1.8249795601
 O       -10.5625234534        7.6711901277       -2.1942735823
 C       -12.0445334907        5.8743761180       -2.3246865256
 C       -11.2484161200        5.4055362792       -3.6558358369
 C        -9.8914106714        4.8397647890       -3.2420595036
 O        -9.7463861211        4.2484776113       -2.1911071325
 C        -8.6504231877        5.0118396956       -4.2731437115
 C        -7.9663491021        3.6276128491       -4.3588659551
 O        -7.1982695477        3.3554033524       -3.4756052729
 C        -8.1251350993        2.7170868275       -5.5783950572
 C        -8.1166076753        1.2500018770       -5.1360117220
 C        -9.3406106808        0.9605000535       -4.1338311486
 O       -10.0178599311        1.9037387834       -3.8008098832
 C        -9.7570761923       -0.4600191477       -3.8270231294
 C        -9.8272773809       -0.6090290778       -2.2167696945
 O        -9.1323811745        0.1087114899       -1.5258656722
 C       -10.7433608592       -1.7278402494       -1.6875520203
 C       -10.6686255234       -1.8849455462       -0.1293547768
 C       -11.7416482709       -1.0363459708        0.6774222635
 O       -12.6473134677       -0.4428114585        0.1522662063
 C       -11.5489290596       -0.9430818668        2.2381184150
 C       -10.3588363948       -0.0341281922        2.5578110875
 O        -9.2197581990       -0.4780420107        2.4425838138
 C       -10.5756514144        1.4557356201        3.0683886102
 C        -9.3546735119        2.3537248148        3.1757240199
 C        -8.5916938743        2.5029754088        1.8814265807
 O        -9.0751376651        2.3102388020        0.7983070480
 C        -7.0693246885        2.8871213272        1.8815215921
 C        -6.6906188337        3.9711713479        0.6236492083
 O        -6.5189127583        3.5487061710       -0.4850538487
 C        -6.6060763769        5.4799048772        0.8850533299
 C        -6.4882707473        3.3832157220        3.3049853126
 C        -6.3638593161        1.5391964498        1.4854398853
 C       -12.8192052364       -0.3043641411        2.9206274099
 C       -11.2814212438       -2.3739695492        2.8201275100
 C       -10.9790621302       -0.7583523421       -4.7062288904
 C        -8.6442160640       -1.5138274984       -4.2281149885
 C        -9.1129511093        5.4551935638       -5.6934768942
 C        -7.6513559864        6.0530793348       -3.6737580855
 C       -14.0308996972        7.6711446003       -1.0899774431
 C       -12.2495612439        9.4933336782       -1.2029914275
 C        -8.5009846124        8.4940673552        5.6527405498
 C        -7.7128541523        8.0186785870        3.3010698098
 H       -11.1653403001        5.5824529509        5.2316094492
 H       -10.5195741820        6.6231863799        6.5192706700
 H        -9.8634308299        4.9711566918        6.0001032715
 H       -11.3651155332        6.9940845144        3.0422351376
 H       -10.0365851826        7.1207160098        2.0750898260
 H       -10.9858886555        9.2526358800        1.0346005485
 H       -12.3858098691        9.3095832932        2.0472517053
 H       -13.0999281332        5.9279000535       -2.6267142684
 H       -11.9334419623        5.1446326888       -1.5053957728
 H       -11.3923848948        6.1852825523       -4.4089871288
 H       -11.7980863716        4.5727800534       -4.0264827119
 H        -7.3339960178        2.9249290552       -6.2605187653
 H        -9.0726183986        2.8448620238       -6.2088655369
 H        -7.2223784148        0.9954800399       -4.5932869706
 H        -8.2033877710        0.6281925451       -6.0294106949
 H       -10.4905886626       -2.7095622113       -2.0725845231
 H       -11.7903223761       -1.5594743601       -2.0197170125
 H        -9.6388327279       -1.6042827034        0.1937275893
 H       -10.8675175944       -2.9449493476        0.0272318100
 H       -10.9659899231        1.3403540977        4.0547167332
 H       -11.4369479762        1.8452878744        2.4525489924
 H        -8.7379027079        1.9492595726        4.0142130846
 H        -9.5330355552        3.3474409302        3.5536832947
 H        -7.3835834326        5.6672567999        1.6004946957
 H        -6.9192543693        5.9966759492       -0.0183149281
 H        -5.6212180677        5.7145340735        1.3558922097
 H        -5.7193599845        4.2071822488        3.2781099690
 H        -6.1282873233        2.4865122149        3.7908999888
 H        -7.3833489238        3.8151929321        3.8350072576
 H        -5.3572091071        1.8812720294        1.1636639430
 H        -6.8863910776        1.1525068011        0.5847171732
 H        -6.2399998866        0.8736002828        2.2875177994
 H       -13.6360537356       -0.9427122864        2.5770079469
 H       -13.0070163007        0.7138796721        2.5660297580
 H       -12.8097953369       -0.3788641770        4.0371843089
 H       -11.9155786216       -2.5593866235        3.6358690687
 H       -10.2186647071       -2.4886437232        3.1503636043
 H       -11.5278936487       -3.0041974614        1.9985533519
 H       -11.4919752375       -1.6085288068       -4.3430873518
 H       -10.6456329804       -0.8546959345       -5.7033088618
 H       -11.5269135566        0.1852004425       -4.7343996670
 H        -8.6724696289       -2.4176980439       -3.6530120494
 H        -7.6393338836       -1.1293376304       -4.0865507585
 H        -8.8305227224       -1.7050298801       -5.3119634484
 H        -8.1590498330        5.5502342839       -6.2959991299
 H        -9.6050550756        6.4428757567       -5.6704101998
 H        -9.7319316976        4.6818033789       -6.2453031603
 H        -6.6596873339        6.0634101566       -4.2325413140
 H        -7.4307220694        5.8610091012       -2.6348090265
 H        -8.1863615775        7.0444689097       -3.7286694499
 H       -14.2722352583        6.6659551979       -0.8162231403
 H       -14.3165994705        7.8781448749       -2.1108803467
 H       -14.5120007786        8.4235546855       -0.4472095206
 H       -12.6836668234        9.6709844138       -2.2283812774
 H       -11.2312211176        9.6127631684       -1.4340205150
 H       -12.6879606657       10.0226088663       -0.3735977151
 H        -8.9176518648        8.0126184244        6.5017214443
 H        -8.7526420871        9.5273896739        5.6096691049
 H        -7.4118902790        8.4234629509        5.8034085086
 H        -8.0406496893        7.8219444328        2.2941663847
 H        -6.9523847871        7.3567498111        3.6282165167
 H        -7.3481326729        9.0449887754        3.3695260201
 Na       -8.1592149054        2.2774468343       -1.4598398516
