117

 C        -9.7516511721        5.6013767038        5.7013280717
 C        -9.1155148745        6.2743360392        4.4674936978
 O        -8.8474833794        5.4776593708        3.5826795963
 C        -8.9674909081        7.8184049645        4.3143016619
 C       -10.3813329623        8.3886311507        3.7691375390
 O       -10.8117496767        9.3999654884        4.2762753393
 C       -11.0992595385        7.5960864496        2.6774279630
 C       -11.3319233163        8.3381789751        1.3360773995
 C       -12.2467748389        7.5215786716        0.3719964236
 O       -12.6612105452        6.4665307819        0.7482713449
 C       -12.6374733564        8.0053039421       -1.0610545264
 C       -11.6013219347        7.0069474262       -1.9284633587
 O       -10.4472089268        7.3048737970       -2.1909074263
 C       -12.2417453886        5.6401381984       -2.4596438838
 C       -11.3208758279        5.1573558507       -3.6079099879
 C        -9.7967054586        5.0262674917       -3.1547033824
 O        -9.6341520672        4.4472471527       -2.1005098380
 C        -8.6799542037        5.2511988467       -4.1953213021
 C        -7.9986230476        3.8309097960       -4.4018008251
 O        -7.2419285589        3.4676028707       -3.5711045311
 C        -8.4529784802        2.9672131841       -5.5910416881
 C        -8.4091290297        1.4381337647       -5.2585991799
 C        -9.3980789588        1.1033414870       -4.1444731947
 O        -9.9660213563        1.9671275547       -3.5117156388
 C        -9.6381424086       -0.4214208297       -3.7664776726
 C        -9.7839238121       -0.5411816575       -2.2375283797
 O        -9.1647997110        0.1528545692       -1.4362367387
 C       -10.7031826462       -1.6047491883       -1.6917923127
 C       -10.4961458528       -1.8580850691       -0.1770610107
 C       -11.5986792175       -1.0745625939        0.5716760631
 O       -12.5275745048       -0.5571480118       -0.0086361304
 C       -11.5019826512       -0.8673240511        2.1219735649
 C       -10.3575401216        0.0892165131        2.3702069436
 O        -9.2090805533       -0.3276312302        2.3328060352
 C       -10.5467800713        1.5898776411        2.7660078207
 C        -9.1992705696        2.2280675397        3.1178948875
 C        -8.3286323873        2.4259110263        1.8385415910
 O        -8.8669412358        2.2506027608        0.7729734440
 C        -6.7836622518        2.7714618576        1.9312160933
 C        -6.7289659485        3.8593648721        0.8441017543
 O        -6.8182762703        3.6214539978       -0.3242806059
 C        -6.7361355955        5.2698051738        1.3223204709
 C        -6.3827557978        3.1839836983        3.3955904614
 C        -5.9427936202        1.4921836325        1.4419376105
 C       -12.8976988343       -0.3409130064        2.6390676425
 C       -11.1845758114       -2.2399810737        2.7681304234
 C       -10.9831816410       -0.9074126713       -4.4970570728
 C        -8.4492431849       -1.2841518819       -4.1607703414
 C        -9.0752924210        5.9013015949       -5.6135929449
 C        -7.7234037527        6.1003690148       -3.3797576763
 C       -14.0810392344        7.6433955190       -1.4010119039
 C       -12.2782553481        9.5326936016       -1.3160356389
 C        -8.7089476066        8.5012716519        5.6959891474
 C        -7.7891681418        8.1667825106        3.3052520480
 H       -10.6492505457        5.0467963804        5.4862799286
 H        -9.9810784249        6.2935370430        6.5265989441
 H        -9.0667471788        4.8790457586        6.0697909327
 H       -12.0867926099        7.2938987605        3.1265591212
 H       -10.6138050528        6.6221248550        2.4674908804
 H       -10.4102610840        8.5631817890        0.8448748529
 H       -11.7254797530        9.3309629831        1.6076088419
 H       -13.2516998835        5.8236320310       -2.8227109234
 H       -12.2872466175        4.8488264149       -1.7084374879
 H       -11.5541713885        5.8299270115       -4.4323800622
 H       -11.6122437188        4.0887442463       -3.8662504581
 H        -7.8262188665        3.0108023224       -6.4925627929
 H        -9.4483415894        3.3323788560       -5.9249008717
 H        -7.3767464654        1.2024744044       -4.9211128500
 H        -8.6735389639        0.8577482954       -6.1116448347
 H       -10.5833837551       -2.5478072583       -2.2252550846
 H       -11.7909960587       -1.3738919716       -1.7658758749
 H        -9.5104696949       -1.4986866513        0.1409875701
 H       -10.6552768297       -2.8802606680       -0.0007339681
 H       -11.2182993762        1.5230056614        3.6139709171
 H       -11.0577965561        2.1909478839        1.9850543454
 H        -8.6276320203        1.5849042539        3.7577250046
 H        -9.2833078026        3.1598464708        3.7239906490
 H        -7.6213510206        5.4464400844        1.8545066233
 H        -6.7474691256        5.9190778443        0.5137676225
 H        -5.8618889590        5.3087225697        2.0006022090
 H        -5.8919990910        4.1518949643        3.3281771642
 H        -5.7925328581        2.3844956847        3.8113353575
 H        -7.2107369662        3.3031577233        4.0469819700
 H        -4.8819247358        1.5559931863        1.7366843114
 H        -6.1443743070        1.3927647308        0.3748864789
 H        -6.2856132866        0.6867378135        2.0046845430
 H       -13.7025814886       -1.0580150173        2.6595151706
 H       -13.1703598269        0.4734540239        2.0133153116
 H       -12.7424384187       -0.0547463352        3.6704842564
 H       -11.2273360691       -2.0899318660        3.8441981210
 H       -10.0900005087       -2.4323902089        2.5069772769
 H       -11.9222849693       -3.0283669859        2.5773076475
 H       -10.6417629368       -1.5350594975       -5.3418858036
 H       -11.5550247656       -0.0439352666       -4.8868915429
 H       -11.6545521445       -1.3674987534       -3.7396728880
 H        -8.7226635364       -2.3369136653       -4.3143709646
 H        -7.7380047222       -1.1171839829       -3.3489004193
 H        -7.9850405857       -0.9841134197       -5.1216752075
 H        -8.1527977859        5.9629841513       -6.1523165344
 H        -9.4443924417        6.8514031301       -5.5250511390
 H        -9.6728685454        5.2727218129       -6.2272132747
 H        -6.7656617325        6.2567025650       -3.8752593540
 H        -7.5131933546        5.6669490610       -2.4431509135
 H        -8.2158278561        7.0432413406       -3.2918299068
 H       -14.2487026913        6.5917701798       -1.1287201466
 H       -14.1167980354        7.6691466566       -2.4657904072
 H       -14.8423662690        8.3228360745       -0.9640602643
 H       -12.3995653589        9.7254201502       -2.3726694055
 H       -11.2408883528        9.7284046527       -1.1015516930
 H       -12.9863530284       10.0620183891       -0.6866880963
 H        -9.3569029049        8.2587275293        6.5243796497
 H        -8.6652053921        9.5953261929        5.5575091212
 H        -7.7233254481        8.0876330787        6.0451764364
 H        -7.9818938236        7.6398909916        2.3464678173
 H        -6.8769553272        7.8295251971        3.7579136278
 H        -7.8470661260        9.2668236992        3.1089104425
 Na       -8.6092595710        2.5601260069       -1.5399414299
