117

 C       -10.0846610470        5.8232668963        5.6366821041
 C        -9.2630896209        6.3407556250        4.4852150850
 O        -8.9680772406        5.5857168936        3.5593436885
 C        -8.9491305265        7.8781096348        4.3676983457
 C       -10.2294380983        8.4939696847        3.7151329375
 O       -10.6340059445        9.5935041730        4.0750955493
 C       -10.9036548391        7.6655782676        2.5910778278
 C       -11.5499911727        8.4672707845        1.4300884588
 C       -12.1927812113        7.5128202518        0.4526739348
 O       -12.4109701458        6.3704539562        0.8135297067
 C       -12.6612808599        7.9920385363       -0.9932322114
 C       -11.4935672247        7.1727647381       -1.9534186306
 O       -10.3766859576        7.5872194693       -2.1780718831
 C       -11.9963687691        5.7252086552       -2.3793172223
 C       -11.2998686833        5.2575929859       -3.6753259526
 C        -9.9339491223        4.9280061166       -3.2550570615
 O        -9.7230579162        4.3006814685       -2.1893285022
 C        -8.6653461002        5.1096238286       -4.2683033616
 C        -7.9497179917        3.6761416043       -4.3926427335
 O        -7.1975866806        3.2234013616       -3.4739237285
 C        -8.2400031592        2.8149422027       -5.5697385205
 C        -8.2292335415        1.3474770078       -5.0675530488
 C        -9.3825538850        1.0254045554       -4.1328231459
 O       -10.0943981510        1.9047469423       -3.6746235153
 C        -9.7123976499       -0.3984166555       -3.8395995689
 C        -9.8646046922       -0.6032571033       -2.1850042566
 O        -9.1061147434        0.0278825510       -1.4855015477
 C       -10.7110373402       -1.6940239594       -1.6873467207
 C       -10.6625577365       -1.8306123660       -0.1085437859
 C       -11.7043831816       -0.9775212938        0.6409596254
 O       -12.6550375622       -0.5145951170        0.0756784619
 C       -11.5334988248       -0.8960673155        2.1676167011
 C       -10.2733250761        0.0238225886        2.4851510507
 O        -9.1393236439       -0.4196368176        2.4327218130
 C       -10.5671950780        1.4397929070        2.9692159923
 C        -9.3438010408        2.2493978394        3.1756920147
 C        -8.5264892985        2.5240485929        1.8850950114
 O        -9.0330500619        2.2198446105        0.8244272519
 C        -6.9115763615        2.8649414976        1.8725912798
 C        -6.7376419765        3.9422315243        0.8362475518
 O        -6.6356264138        3.5818483944       -0.3558873221
 C        -6.6344753109        5.4941644624        0.9737013275
 C        -6.3765315678        3.3021054880        3.3074625731
 C        -6.2468882562        1.4784213042        1.4990374230
 C       -12.8309702313       -0.3283286992        2.7780384231
 C       -11.2462602553       -2.3147902608        2.8244145857
 C       -10.9528428410       -0.6786373226       -4.7296830673
 C        -8.5289762333       -1.5011680669       -4.1716672497
 C        -9.1521093418        5.6443368700       -5.6342878992
 C        -7.7318993671        6.1534158527       -3.6147273360
 C       -14.1552554028        7.6779310274       -1.1580330815
 C       -12.2832254958        9.5298979193       -1.3200696075
 C        -8.4959601220        8.6159828383        5.7753485990
 C        -7.8368986369        8.0234222366        3.3157966319
 H       -11.0506107484        5.4696364497        5.2118571183
 H       -10.3009992990        6.5624708699        6.4033878822
 H        -9.7144717451        4.8277430732        6.0777797950
 H       -11.6753151238        7.0238144865        3.0055219785
 H       -10.2449460326        6.9025655653        2.1691801208
 H       -10.8227522640        9.1921692791        0.9669393993
 H       -12.3871718333        9.1075874094        1.7577223441
 H       -13.0810039468        5.7025370084       -2.5817063646
 H       -11.7684503742        5.1031272575       -1.5042248461
 H       -11.4313461173        6.1382694383       -4.3296649428
 H       -11.7310020051        4.4058235599       -4.1293978060
 H        -7.5806711730        2.9034212381       -6.4139251654
 H        -9.2150551842        3.1435724071       -5.9315083461
 H        -7.3348866368        1.1979238180       -4.4607340395
 H        -8.2324437657        0.6003383059       -5.9311536666
 H       -10.4900508344       -2.6736393309       -2.1152292040
 H       -11.7284563400       -1.4987485643       -1.9671528053
 H        -9.6543048474       -1.6528750916        0.2854345485
 H       -11.0061939331       -2.9093041216        0.0126287528
 H       -11.1798345574        1.3854202022        3.8819720469
 H       -11.2177015836        1.8211008744        2.1992499451
 H        -8.7543681405        1.8206109169        4.0260593598
 H        -9.5397052593        3.2345307766        3.5644045952
 H        -7.6047640424        5.9507008491        1.3929465688
 H        -6.6856206360        5.8377838030       -0.1291115596
 H        -5.7652920119        5.7394694748        1.5639348449
 H        -5.9027461509        4.2505437576        3.2781622359
 H        -5.7837904424        2.5139859092        3.6875628353
 H        -7.2887958147        3.4469528518        3.9487976379
 H        -5.2156924977        1.6071974048        1.2147636231
 H        -6.8429413983        1.0697323416        0.6783651659
 H        -6.2190279859        0.8706679239        2.4522560938
 H       -13.6246724103       -1.0980929509        2.7199122414
 H       -13.1505948386        0.5767286923        2.1828271721
 H       -12.7036448342       -0.1248181244        3.8640587598
 H       -11.8939570628       -2.5654522723        3.6527212184
 H       -10.2561124089       -2.2569147914        3.1530729448
 H       -11.3913430195       -3.0545070943        2.0682937601
 H       -11.0330774490       -1.7179318840       -4.9661026344
 H       -10.8156826763       -0.0756310300       -5.6025900370
 H       -11.7786892422       -0.1759456850       -4.2865533087
 H        -8.8601251291       -2.4540654286       -3.7267269185
 H        -7.5429879684       -1.2385291794       -3.7667860289
 H        -8.5043275867       -1.6637632408       -5.2432104016
 H        -8.4180545467        5.5900895783       -6.4367659508
 H        -9.3153625018        6.7346427328       -5.3526820999
 H       -10.0585208427        5.1931065053       -6.0371439340
 H        -6.7227335424        5.9405931816       -3.9126625836
 H        -7.7205324714        5.9690328369       -2.5370253654
 H        -8.0000826526        7.1981009324       -3.8076816166
 H       -14.3175847658        6.6285895795       -0.9983807539
 H       -14.6047419290        7.9919277987       -2.1297933179
 H       -14.5739850518        8.2564488441       -0.3624262665
 H       -12.5639122885        9.5643001524       -2.3912462877
 H       -11.2289031288        9.6664220446       -1.4545123912
 H       -12.8172534565       10.1604219986       -0.6613478222
 H        -8.8614469004        8.2348530890        6.7474664620
 H        -8.8138517019        9.6218766287        5.5673958074
 H        -7.4410539123        8.6326817821        5.9077816934
 H        -8.2246733747        7.7974625532        2.3682898862
 H        -7.0406401415        7.3538871336        3.6214612710
 H        -7.5348997903        9.0209963013        3.3178191472
 Na       -8.2883139605        2.4490854600       -1.5819545173
