117

 C       -10.6809350193        6.6588039840        6.0219683629
 C        -9.5084416829        6.7427380656        5.1493407073
 O        -9.0222742165        5.6915566877        4.7356732919
 C        -8.9326607430        8.1536243515        4.6300469337
 C        -9.8044122551        8.7551121318        3.3891935452
 O       -10.0079081483        9.9547088297        3.3578996350
 C       -10.1879927215        7.8510441627        2.2530888176
 C       -11.0594392325        8.5671996034        1.2142423242
 C       -12.0293134767        7.7143111304        0.4014388939
 O       -12.2439697463        6.5758849984        0.7608855739
 C       -12.6421227545        8.2795193949       -0.9699739972
 C       -11.6358732907        7.8219100740       -2.1243020943
 O       -11.0409316780        8.6978838463       -2.7353347343
 C       -11.6521728836        6.2103767018       -2.3902644352
 C       -10.6951870334        5.8403030898       -3.5636132360
 C        -9.7764654176        4.6039366346       -3.4498278338
 O        -9.7906993946        3.8212611645       -2.4717107350
 C        -8.6209495453        4.4557139155       -4.5428222480
 C        -7.8995408223        3.0308538252       -4.4562585723
 O        -7.3790859227        2.6607291092       -3.4410222443
 C        -7.7390459615        2.1708501505       -5.6553021364
 C        -8.0214959227        0.7358471868       -5.1555520718
 C        -9.2438261154        0.5964504325       -4.2937073934
 O        -9.8991783474        1.5852098951       -4.0462086092
 C        -9.7547265300       -0.8320834355       -3.7596933459
 C        -9.9513017458       -0.7436337290       -2.2177491623
 O        -9.2902097881        0.0030417577       -1.4842306041
 C       -11.0517122942       -1.5720359042       -1.5748682915
 C       -10.7708846818       -1.7530956896       -0.0038253093
 C       -11.7645964064       -0.9008869522        0.8994985801
 O       -12.7644177611       -0.4103333463        0.3871689093
 C       -11.4773870350       -0.8174983746        2.3766188184
 C       -10.3497556517        0.2232072152        2.6515205337
 O        -9.2443063889       -0.1584542691        2.8564950867
 C       -10.7159108884        1.7494229640        2.8743792497
 C        -9.4411050396        2.5401396177        3.0400786004
 C        -8.6793435160        2.5988786360        1.7129249146
 O        -9.2900244845        2.6362344489        0.6277952983
 C        -7.0759263742        2.7506590712        1.7624138830
 C        -6.6571906704        3.7651686986        0.6432819233
 O        -6.5647761183        3.3250047235       -0.4994349462
 C        -6.4442867493        5.2370239780        0.9754723900
 C        -6.5863518134        3.2361199644        3.1098082013
 C        -6.5679623576        1.3242981948        1.4079850501
 C       -12.8218382281       -0.4643444674        3.1222987745
 C       -11.0274474455       -2.2016241388        2.9563321418
 C       -11.2050011577       -1.0761615844       -4.4210160945
 C        -8.8353796435       -1.9614544350       -4.2054229131
 C        -9.2448253919        4.7605407390       -5.9353073597
 C        -7.5889506256        5.6540600232       -4.2613792614
 C       -14.0504204406        7.6616414634       -1.1654755726
 C       -12.6845414109        9.8387377336       -0.9692438914
 C        -8.8723127573        9.2488113373        5.7253780056
 C        -7.4578614662        7.9171105177        4.0023995109
 H       -11.0562620625        5.6277948649        6.1955443877
 H       -11.5826790264        7.2655857456        5.7871116474
 H       -10.3440064752        7.0810729327        6.9119498940
 H       -10.7804273996        7.0621054390        2.7361448157
 H        -9.2906087941        7.3661570227        1.8470886202
 H       -10.3138616245        9.0614912153        0.6097670257
 H       -11.5045372504        9.4373148581        1.7754512380
 H       -12.6493182830        5.9550233446       -2.7569534773
 H       -11.4568702369        5.6996575678       -1.4454115071
 H       -10.0513154074        6.7585775398       -3.5495342450
 H       -11.1472010658        6.0190235664       -4.5403827765
 H        -6.6882435108        2.2224540414       -5.8930221307
 H        -8.2704268990        2.2791213394       -6.5852995836
 H        -7.1704044073        0.2011519217       -4.6337672392
 H        -8.1115052646        0.1609298620       -6.0954267461
 H       -11.1277050340       -2.5458927766       -2.0139624870
 H       -12.0324567087       -1.1091027156       -1.7242062215
 H        -9.7117088842       -1.5576888726        0.3094829669
 H       -10.9669412791       -2.7855425343        0.2695977465
 H       -11.2336631867        1.7451978004        3.7888184005
 H       -11.3735799230        2.1834726780        2.0748633722
 H        -8.9497905306        2.1179486605        3.9292783318
 H        -9.5911081097        3.6144441328        3.2333476434
 H        -6.3286073043        5.8046157056        0.0207176257
 H        -5.7542555521        5.3363489735        1.8125412516
 H        -7.4493934465        5.5174302311        1.3822620789
 H        -5.4765598060        3.1891824765        3.1350917247
 H        -6.9660199908        2.6987593743        4.0062072074
 H        -6.8357816918        4.2163376373        3.3339097207
 H        -5.4641201682        1.3327101139        1.2191567939
 H        -7.1527613171        1.0075018363        0.5495525299
 H        -6.8990341894        0.6394650791        2.1548313250
 H       -13.5254264962       -1.2923724860        2.9991850889
 H       -13.2866160959        0.4256012236        2.7237541623
 H       -12.7305143965       -0.3094008924        4.2117925006
 H       -11.7645531429       -2.5012401157        3.7120663043
 H        -9.9599349570       -2.1594203849        3.2360842259
 H       -11.1092278022       -2.9541938134        2.1552253705
 H       -11.5140011346       -2.1298255421       -4.5749683680
 H       -11.1219634933       -0.6367491616       -5.4242827010
 H       -12.0120572821       -0.5968988055       -3.8286527550
 H        -9.1648256996       -2.9558283297       -3.8710365576
 H        -7.7991121555       -1.7722235077       -3.9005617330
 H        -8.7771726254       -2.0679800547       -5.3168918851
 H        -8.6512216622        4.3828415365       -6.7695133471
 H        -9.2957575607        5.7964701381       -6.0256247654
 H       -10.2508872559        4.3304615890       -6.0149892171
 H        -6.9340099720        5.6712578990       -5.1300511492
 H        -7.0086800073        5.5738933273       -3.3518519619
 H        -8.0430093658        6.6088843662       -4.2255268581
 H       -14.1336638957        6.6812880588       -0.6678450768
 H       -14.2822047136        7.6037408780       -2.2033056703
 H       -14.7861310502        8.3181826291       -0.6569503003
 H       -13.2851804884        9.9760854145       -1.8165694171
 H       -11.6473308554       10.1508485306       -1.1039120512
 H       -13.1955444706       10.3563902796       -0.1448429141
 H        -9.8186009555        9.4031152696        6.2087548919
 H        -8.6729249869       10.2371460116        5.2740975021
 H        -8.0468315139        9.0298449289        6.4533524191
 H        -7.5350527559        7.3095386669        3.0570313586
 H        -6.8540868607        7.3341586045        4.6885895316
 H        -6.9774154173        8.9211727577        3.7670720367
 Na       -8.3928483956        2.1412875086       -1.4684499937
