117

 C       -10.6567600863        7.0515478453        6.1636859858
 C        -9.5721032530        6.8645053752        5.1317562398
 O        -9.3724726222        5.7741567327        4.6226430074
 C        -8.9379109620        8.2418950130        4.6797726859
 C        -9.7155697092        8.7618851470        3.3114631545
 O       -10.0738474940        9.9044189271        3.3269764230
 C       -10.0524623578        7.7406279097        2.2551221944
 C       -10.4931370660        8.3593882466        0.8460860068
 C       -11.7882718228        7.6504924129        0.2763283034
 O       -12.1864290487        6.6474960056        0.8461216378
 C       -12.5390133849        8.2389228967       -0.9732315335
 C       -11.7218780269        7.8161050184       -2.2352157190
 O       -11.1032628596        8.6504387399       -2.8803423404
 C       -11.3688373681        6.3722969200       -2.4710363541
 C       -10.3858544832        6.2134829293       -3.6788020928
 C        -9.5894389226        4.8403095275       -3.5999849391
 O        -9.5923254244        4.0880466077       -2.6137342926
 C        -8.5780856507        4.5878363061       -4.7094932271
 C        -8.0255885241        3.0747270985       -4.5398925954
 O        -7.3557918379        2.7710168620       -3.5599282298
 C        -8.1199144517        2.0235703887       -5.6378720588
 C        -8.2221808235        0.6265794527       -5.0589947826
 C        -9.5259520580        0.4597804708       -4.2636905918
 O       -10.1938735218        1.4425111161       -3.9866779398
 C        -9.9856521852       -0.9586564454       -3.7086987404
 C       -10.0700624018       -0.8491822333       -2.1559137665
 O        -9.1622956209       -0.2115438377       -1.5792533655
 C       -11.0783356750       -1.6958165442       -1.3579773422
 C       -10.6895621916       -1.8062355366        0.1278448779
 C       -11.6443696156       -0.9228217996        0.9889087141
 O       -12.6030721586       -0.3509990130        0.4789761843
 C       -11.5068968197       -0.8159624715        2.5168969739
 C       -10.4443565293        0.3064836484        2.6463246069
 O        -9.2756244061        0.0557234285        2.6367022658
 C       -10.8703380257        1.7518765117        2.9312646848
 C        -9.6458263093        2.7396159914        3.0134150322
 C        -8.7578786117        2.6610850944        1.8156645317
 O        -9.3025644589        2.3841806955        0.7403485998
 C        -7.1341654634        2.6445841652        1.8533366232
 C        -6.6969063280        3.7503568971        0.7824437503
 O        -6.7129213818        3.4736491248       -0.4075520114
 C        -6.1675448740        5.1721713282        1.1131058598
 C        -6.6102889546        2.9460382855        3.2720226954
 C        -6.6040635420        1.2036156851        1.4217377499
 C       -12.8143941390       -0.3812462304        3.1082190877
 C       -11.0125406527       -2.1684048473        3.0990026125
 C       -11.2794666428       -1.4385915348       -4.4658737806
 C        -8.9345046413       -2.0739101463       -3.9225552270
 C        -9.3153595247        4.8332221706       -6.1012193138
 C        -7.3264748822        5.4947445626       -4.5518549643
 C       -13.9224492811        7.5773210588       -1.0799616185
 C       -12.7015532183        9.7665416362       -0.9939831610
 C        -9.0583745485        9.4307484882        5.6706796994
 C        -7.3815033308        8.0525595869        4.2338128076
 H       -11.3435636145        6.2341850190        6.2398124620
 H       -11.2823046644        7.9598581913        6.0311536423
 H       -10.1991867234        7.2852174167        7.0947062515
 H       -10.9430807233        7.3098310661        2.7564887545
 H        -9.2643926758        6.9743521859        2.1980353677
 H        -9.6445397166        8.2834682826        0.1810243654
 H       -10.5425936988        9.4180899629        1.0833303304
 H       -12.2156535874        5.7402693682       -2.7380834560
 H       -10.9340248434        5.8289414126       -1.6366252031
 H        -9.6776220503        7.1172569333       -3.5883699180
 H       -10.7860450906        6.4340552820       -4.6398731134
 H        -7.2554358710        2.0511438058       -6.2805630474
 H        -9.0787728222        2.1930268902       -6.2514402788
 H        -7.2933320952        0.4785415212       -4.5898676721
 H        -8.2306712683       -0.1524608313       -5.8274359991
 H       -11.1843548414       -2.7166356589       -1.8157146509
 H       -12.0917282497       -1.2188998366       -1.4506805679
 H        -9.6806644515       -1.5235265474        0.3191436167
 H       -10.7852392909       -2.7971174028        0.5739550553
 H       -11.3854718956        1.7625908828        3.8928971379
 H       -11.5497071649        2.2140560273        2.1731804671
 H        -8.9710881441        2.3461539408        3.8214111590
 H       -10.0470717972        3.6846610988        3.2942258743
 H        -5.2280779496        5.2593671434        0.6753307959
 H        -6.2268710158        5.2951085074        2.1250273476
 H        -6.8087455331        5.8891311146        0.5854043798
 H        -5.5601240678        3.2712508333        3.1487545345
 H        -6.8737476728        2.1866973242        4.0065291025
 H        -7.0056664252        3.7688182223        3.8290140442
 H        -5.5495273603        1.0677558525        1.7508092510
 H        -6.8244082324        1.0550998790        0.3485524717
 H        -7.2129357046        0.5050039097        1.9186586419
 H       -13.5086352086       -1.2047967657        3.0086019039
 H       -13.2519602283        0.4671433873        2.6222513697
 H       -12.8199955086       -0.2738231118        4.2035701681
 H       -10.9689353752       -2.0295252603        4.1621325647
 H        -9.9581718857       -2.2878913726        2.7237446835
 H       -11.6640722624       -3.0075425380        2.9960954999
 H       -12.1643126077       -1.7495973485       -3.9516812615
 H       -11.0691556358       -2.2215660215       -5.1697185666
 H       -11.5342880652       -0.5656531399       -5.0927007816
 H        -9.3437453428       -3.0230187092       -3.7475120062
 H        -8.0187417150       -1.9074260033       -3.4157761557
 H        -8.6928245136       -2.2670692911       -4.9829221216
 H        -8.6756305755        4.6285671527       -6.9883655741
 H        -9.5904531355        5.8747690793       -6.1137157011
 H       -10.1454664784        4.1119988635       -6.2524618953
 H        -6.6006182938        5.2389169859       -5.3821580973
 H        -6.7841492835        5.3743916971       -3.6174979550
 H        -7.5973019365        6.5800028936       -4.6546948270
 H       -13.9755545041        6.5864497312       -1.5280397932
 H       -14.5617169650        8.2002691525       -1.6937991829
 H       -14.3180273752        7.5436051722       -0.0468419341
 H       -13.0832284681        9.9923269023       -2.0151806302
 H       -11.7238035618       10.1875086589       -0.8528441055
 H       -13.3564365479       10.0972191248       -0.1754103858
 H        -9.9603623961        9.9697387092        5.6928364774
 H        -8.3022862115       10.1337008917        5.3827956482
 H        -8.8267621309        9.0892404510        6.6928813974
 H        -7.2075750170        7.2022986112        3.6081492393
 H        -6.8053408505        7.8720676685        5.0926040404
 H        -7.0500852170        8.9531535452        3.7160269169
 Na       -8.3704262289        2.1572606856       -1.5539876164
