117

 C       -10.7444065120        7.2769464869        6.3203818517
 C        -9.8204408538        7.1179805672        5.0757521795
 O        -9.8507269378        6.0872257194        4.4386588229
 C        -9.0547452328        8.3852619567        4.5223114856
 C        -9.6196886530        8.7771397723        3.0717846635
 O       -10.2084676885        9.8176580032        2.9220462730
 C        -9.3997284447        7.8448261172        1.9005996201
 C       -10.0920083523        8.1571931409        0.5627730572
 C       -11.4726032397        7.5351740372        0.3851827589
 O       -11.8158864271        6.5251499625        0.9541070026
 C       -12.3109960487        8.1767326511       -0.9095359698
 C       -11.4708096653        7.9498048844       -2.2517564090
 O       -11.0976748389        8.9397883021       -2.8337132127
 C       -10.8889735155        6.5210919093       -2.4626298476
 C       -10.0790787212        6.2135782084       -3.7403558771
 C        -9.1510689154        5.0766428390       -3.6019954691
 O        -9.1629166071        4.4463959160       -2.5499890401
 C        -8.3538235117        4.5007014067       -4.9217858527
 C        -8.1279123927        2.9536470730       -4.7659166746
 O        -7.5344934620        2.5455149099       -3.8385683298
 C        -8.7442724725        1.9836150014       -5.8110219119
 C        -8.7909561051        0.4667425825       -5.3303289062
 C        -9.6916123483        0.3345547368       -4.0612830446
 O       -10.3161810941        1.2965017896       -3.6740537447
 C       -10.0242342052       -1.0495861890       -3.4481605683
 C       -10.0911023616       -0.9229898920       -1.8339333774
 O        -9.4048423928       -0.0848114398       -1.3297348883
 C       -10.7841777446       -1.9875354142       -1.0165912767
 C       -10.6063885340       -1.8744293434        0.5234858060
 C       -11.6629608348       -0.9761541068        1.1922424515
 O       -12.5133182389       -0.4179905298        0.5480671418
 C       -11.5715347325       -0.7362124807        2.7020011116
 C       -10.5477613430        0.4919318600        2.7902912877
 O        -9.3686230399        0.1735197692        2.7287118768
 C       -11.0211428720        1.9743438002        2.7131651993
 C        -9.7933072123        2.8341840596        2.7834696690
 C        -8.8552206569        2.4673383509        1.5510234373
 O        -9.3139986342        2.1036187976        0.4823355376
 C        -7.2995251835        2.5136128492        1.7521846361
 C        -6.8272682404        3.7027993603        0.8683012307
 O        -7.2413604010        3.7969771451       -0.2654236831
 C        -5.7769507715        4.6967983279        1.4160043847
 C        -6.9009069672        2.6407646797        3.2283269909
 C        -6.6951308162        1.2685966571        1.0792992498
 C       -12.9255664244       -0.3504149855        3.3868734009
 C       -11.0457871849       -1.9723337167        3.4461900945
 C       -11.3315777793       -1.5083655610       -4.0101731856
 C        -8.8864559832       -2.0988314171       -3.7102218092
 C        -9.0639359364        4.8274947126       -6.1803957208
 C        -6.9177864460        5.2095527030       -5.0661738840
 C       -13.6631429419        7.4342563224       -1.1516957393
 C       -12.5700909990        9.6981133714       -0.7267660675
 C        -9.2427123885        9.7144799024        5.3544235805
 C        -7.5516922765        7.9853094087        4.4242504635
 H       -11.2813533843        6.4556583903        6.7944082930
 H       -11.4231782047        8.1006345121        6.1972430607
 H       -10.1108869088        7.7397513169        7.1004622434
 H        -9.8488239294        6.8631959786        2.1425839946
 H        -8.3462338323        7.6325989201        1.6104817400
 H        -9.4629260369        7.7478326086       -0.1896802645
 H       -10.2175742834        9.2236995365        0.3438515472
 H       -11.6040030291        5.7030226114       -2.3122051639
 H       -10.2346247933        6.2461379516       -1.6421237580
 H        -9.5764544531        7.1163844844       -4.1498010545
 H       -10.8151348845        5.8557704407       -4.5007758505
 H        -8.1657668727        2.0063407189       -6.7970158202
 H        -9.7309362804        2.1641967635       -6.0884684375
 H        -7.7686387218        0.1211277042       -5.0833771392
 H        -9.0699880324       -0.1178149721       -6.1467346076
 H       -10.4312626650       -2.9776948524       -1.3454573092
 H       -11.8926964550       -1.8968075439       -1.2440064001
 H        -9.6333857129       -1.4646701693        0.8304638337
 H       -10.6260252412       -2.8049155412        1.0017766266
 H       -11.5865619991        2.1996908107        3.5999203245
 H       -11.6416663247        2.2173962015        1.7970349368
 H        -9.4013802594        2.7235892907        3.7848502260
 H       -10.1181095093        3.8896498262        2.6264629598
 H        -5.7412880032        4.8076675923        2.4879379732
 H        -6.0639698847        5.5923085240        0.9315536475
 H        -4.9053879280        4.3666554724        1.0205402200
 H        -5.8335232789        2.3372544508        3.3089627650
 H        -7.3130282812        1.9404594228        4.0057585593
 H        -6.9249368222        3.6903126232        3.6638008577
 H        -5.6422784721        1.1608627419        1.2812453727
 H        -6.8874979044        1.3527094632        0.0335673087
 H        -7.1148164250        0.3792269551        1.6454344020
 H       -13.5512066992       -1.2391338754        3.5826501357
 H       -13.5871518797        0.2267012110        2.7135011864
 H       -12.8686100564        0.1699682572        4.3390238431
 H       -11.5617616612       -1.9481305656        4.4195749064
 H       -10.0589738997       -2.0022145109        3.7522511346
 H       -11.2987632147       -2.9104666240        2.9483338954
 H       -12.0648194821       -0.7398831429       -4.2028739911
 H       -11.8739517619       -2.2546118902       -3.4350823508
 H       -11.1322998189       -2.0062812650       -4.9155380102
 H        -9.1807185659       -3.0577843822       -3.2404225295
 H        -7.9756863418       -1.9245269815       -3.1370679382
 H        -8.5946722582       -2.2780396555       -4.7051752768
 H        -8.5793889363        4.5715021844       -7.1437867848
 H        -9.1881281793        5.9236534301       -6.1488733080
 H       -10.1064631372        4.4474997572       -6.1517189611
 H        -6.4503852886        5.0182313778       -6.0141326090
 H        -6.2059176635        4.7396007630       -4.3520866683
 H        -6.9796789376        6.2687517585       -4.9223783911
 H       -13.5390995292        6.3885574972       -0.7931977850
 H       -13.8949420732        7.3086911120       -2.1970511472
 H       -14.5190123983        7.9280127075       -0.6869414817
 H       -13.3322256363        9.9839373503       -1.4029969440
 H       -11.7193564626       10.3027725719       -1.1567175381
 H       -12.8071607410        9.9502978600        0.3076946968
 H       -10.3064348498        9.8587978008        5.5342252235
 H        -8.8444818234       10.5650575339        4.7969778989
 H        -8.8007045413        9.6781917769        6.3302273306
 H        -7.4392747729        7.0384660994        3.9058390566
 H        -7.1288663458        7.9532302567        5.4138130997
 H        -7.0074793363        8.7280622255        3.8903041753
 Na       -8.6604612351        2.3665575195       -1.7057593784
