117

 C       -10.6837350140        6.7940776466        6.1567143547
 C        -9.5104225294        6.8737380079        5.0985608639
 O        -9.0186075117        5.8272177504        4.7209846633
 C        -8.9066724879        8.2208026136        4.6288715263
 C        -9.7284969526        8.7730096266        3.3396720579
 O       -10.0685382739        9.9329714766        3.3124879410
 C       -10.2172434885        7.8264427890        2.1811708751
 C       -10.8595673086        8.5181608410        0.9878577830
 C       -11.9218008759        7.6834939989        0.3576009350
 O       -12.2982664665        6.5835185360        0.7249884485
 C       -12.5966460778        8.3451976815       -0.9813087201
 C       -11.7180350314        7.7747947928       -2.1439830415
 O       -11.0837710396        8.5890719806       -2.7703543610
 C       -11.5678779157        6.3492900341       -2.4947608630
 C       -10.5200585245        5.9650197600       -3.5690725997
 C        -9.7360722635        4.7262061815       -3.3985522551
 O        -9.8945240488        3.8822889368       -2.5209171837
 C        -8.6330379234        4.5153552322       -4.6292585241
 C        -7.9054194518        3.1077172820       -4.4448433429
 O        -7.3353358011        2.8615761134       -3.3936381171
 C        -7.9101399987        2.1489940439       -5.6725465848
 C        -8.1252819048        0.6270274059       -5.2768158768
 C        -9.3698305229        0.5201017349       -4.3409335272
 O       -10.0369585964        1.4847821856       -4.0352392849
 C        -9.8312525086       -0.8300134811       -3.8069667971
 C        -9.9888214430       -0.7823788403       -2.1854852481
 O        -9.2211472036       -0.1032032523       -1.5768779318
 C       -11.0589864498       -1.6378365724       -1.4995979558
 C       -10.8197024017       -1.7974552491       -0.0071306671
 C       -11.7995216178       -0.8908854328        0.8159169145
 O       -12.7669375714       -0.4283596091        0.3046588325
 C       -11.4933268122       -0.8228654907        2.4600526075
 C       -10.3842207274        0.2778470084        2.8111761058
 O        -9.2044757356       -0.0496958236        2.8198676058
 C       -10.7447052179        1.7433785160        2.9421885541
 C        -9.4554037239        2.5591973587        3.0864773108
 C        -8.7025584828        2.7331051284        1.7293439074
 O        -9.2869893177        2.5401225319        0.6907121157
 C        -7.1365760994        2.7102811189        1.7713584445
 C        -6.7041173883        3.7264833296        0.6745313402
 O        -6.5388765437        3.3595469965       -0.4780047488
 C        -6.3787849507        5.1731614184        1.0692824495
 C        -6.5720907218        3.1838808064        3.1324708442
 C        -6.6331925302        1.2991171331        1.3658221342
 C       -12.8605199239       -0.4889171685        3.1449522741
 C       -10.9282270320       -2.1157745542        3.0867490035
 C       -11.1943594457       -1.0600475988       -4.5122272033
 C        -8.8527499741       -2.0161778112       -4.0293350130
 C        -9.1777007160        4.6995911715       -6.0170244008
 C        -7.4561274426        5.5530546056       -4.4706315665
 C       -14.0104347826        7.6907044041       -1.0793597746
 C       -12.7545595483        9.8411185965       -0.9827703957
 C        -8.8664474729        9.2021350978        5.7788531053
 C        -7.4801162802        7.8507982208        4.2336705229
 H       -11.2560965181        5.8357270909        6.2534067271
 H       -11.4662726226        7.5184626199        5.9082832777
 H       -10.3613564749        7.2090172651        7.1384527589
 H       -10.9479589270        7.1869830802        2.6872875239
 H        -9.3826100003        7.2023006808        1.8665138963
 H       -10.0317753449        8.9016961645        0.3598728584
 H       -11.2710771518        9.4501864565        1.4391724917
 H       -12.4952336134        5.8436736806       -2.7979225226
 H       -11.2530869175        5.9010292735       -1.5268131606
 H        -9.9676439035        6.8474499148       -3.6886266074
 H       -10.9405287777        5.9026128923       -4.6002268719
 H        -6.9746553553        2.2770049904       -6.2823369180
 H        -8.7190051301        2.3181830634       -6.2964919182
 H        -7.2475389666        0.1948376743       -4.6855093547
 H        -8.1123312921        0.0265194434       -6.1769336766
 H       -11.0594404592       -2.6502125211       -1.8793030992
 H       -12.0517979863       -1.2523239136       -1.7202172232
 H        -9.7496310173       -1.6300260759        0.3064801274
 H       -11.0443473031       -2.8330058214        0.2971304314
 H       -11.3753660829        1.8243139551        3.8457078335
 H       -11.3059957147        2.0850754366        2.0798936264
 H        -8.8877523087        2.0585821257        3.8469776739
 H        -9.6597347892        3.5982651280        3.4754968040
 H        -5.7562300254        5.4903021832        0.1694300902
 H        -5.9352375146        5.1970138221        2.1078763431
 H        -7.2504749293        5.7953533725        1.0383073044
 H        -5.5441963400        3.5094059258        3.0657785344
 H        -6.7274466992        2.4599712478        3.9285194382
 H        -7.1095765226        4.0215961348        3.6066797969
 H        -5.5741972977        1.4702224462        1.4664989603
 H        -6.8842470090        1.1619199851        0.3291849533
 H        -7.0577374826        0.3771649423        1.8929577094
 H       -13.6161374577       -1.3007503579        3.1535540931
 H       -13.3167556496        0.4343399844        2.7175795589
 H       -12.7046711834       -0.2880115601        4.2060515685
 H       -11.6302346805       -2.4745810728        3.8563701996
 H        -9.9327453037       -2.0131240630        3.3398808158
 H       -11.0076731575       -2.8819852903        2.3185856109
 H       -11.6889665479       -1.9320589661       -4.0514894974
 H       -11.0991663910       -1.2787562290       -5.5908048702
 H       -11.8389574584       -0.2226020857       -4.3245995989
 H        -9.1774797883       -3.0353989671       -3.7564037789
 H        -7.8875960439       -1.7167577502       -3.6048508128
 H        -8.6411256154       -2.1589037518       -5.0626915863
 H        -8.4112449082        4.4365055697       -6.7258304708
 H        -9.4183327223        5.7523929417       -6.1614023751
 H       -10.0024358644        4.0371318623       -6.2165117194
 H        -6.9025127723        5.6925865403       -5.3430352015
 H        -6.8190562874        5.2773166825       -3.6336828579
 H        -7.8409175319        6.4873355689       -4.1934946488
 H       -13.9190873038        6.5968832461       -0.8979537941
 H       -14.3038443901        7.8169105048       -2.1276231279
 H       -14.7678441902        8.0879045680       -0.4114921825
 H       -13.2460427944       10.0855322446       -1.8967191530
 H       -11.7163534351       10.2675960628       -0.8461536534
 H       -13.3958206478       10.1251808614       -0.1367708957
 H        -9.8868829920        9.2825920183        6.2201277146
 H        -8.6386435413       10.2488130505        5.4930921971
 H        -8.1478463018        8.8621106116        6.5146766947
 H        -7.3947978894        7.0336206607        3.5080890611
 H        -6.9283285168        7.5472557589        5.1376556936
 H        -7.0705598221        8.7622464583        3.8413811048
 Na       -8.2992427793        2.0355945726       -1.4152598168
