117

 C       -11.8285046475        1.7216901795       -4.9223824837
 C       -10.9545886170        2.9342674453       -4.5996837214
 O       -11.2808356721        3.6900039452       -3.7472497504
 C        -9.7739674393        3.3519686001       -5.7078668295
 C        -8.5097940347        3.6086296481       -4.8027342312
 O        -8.3552993453        4.7432625102       -4.4736397368
 C        -7.6084249253        2.4933491628       -4.3682257236
 C        -8.2129522075        1.6275532336       -3.1856272642
 C        -8.1379430529        2.3868505001       -1.9171016518
 O        -8.3038170792        3.6177013782       -1.9749179874
 C        -7.9677217591        1.7480612277       -0.5317915711
 C        -9.0881423207        0.6238435867       -0.3898263927
 O        -9.7213418422        0.1406986362       -1.3138390251
 C        -9.1792975462       -0.1058565125        1.0312882389
 C       -10.4636565065       -0.8858760782        1.2846729270
 C       -10.2107556796       -2.1300904967        2.1526882514
 O        -9.1361155692       -2.7517616025        2.0660159175
 C       -11.3465870038       -2.5475221821        3.0693020489
 C       -11.5909468148       -1.3451610175        4.0911905681
 O       -12.4763400291       -0.6089135817        3.8669530959
 C       -10.5864796444       -1.3025904987        5.2907271136
 C       -10.8954791652       -0.0960947410        6.2618614102
 C       -10.4036932746        1.1894070138        5.5517224075
 O        -9.8252799054        1.0652377605        4.4728758056
 C       -10.4219670351        2.5819437308        6.2527190654
 C       -10.9682303440        3.6347114510        5.1173315625
 O       -12.0557085294        4.1649735570        5.3277186534
 C       -10.1814703159        3.8468725423        3.7737155525
 C       -11.0780872155        4.4456535799        2.7077892143
 C       -10.5549524972        5.7356647463        2.0480505170
 O        -9.3928705775        6.1282865839        2.1707164137
 C       -11.5861963920        6.5529509279        1.2491454061
 C       -10.8684693099        7.1524123718       -0.0261055509
 O       -11.2351538856        6.8599820801       -1.1470975923
 C        -9.6671367803        8.0536303401        0.1254529486
 C        -9.3144041652        8.9739895128       -1.0221868693
 C        -8.8444640156        8.3193624040       -2.3265780721
 O        -8.4186145333        7.1879307839       -2.3394555787
 C        -9.1374694793        9.1051900233       -3.6344807934
 C       -10.5191190190        8.5258237566       -4.1838421131
 O       -10.7567501056        7.3287446091       -4.3525656250
 C       -11.5412509566        9.4821676750       -4.7845865112
 C        -9.0124284140       10.6366430090       -3.4169150366
 C        -8.0686099936        8.6432123491       -4.6208319805
 C       -12.8010013787        5.7961896613        0.8446348836
 C       -12.1205173087        7.6638898299        2.1955795629
 C       -11.4002214191        2.6686830678        7.4370104834
 C        -9.0324639710        3.0381063914        6.8166850537
 C       -12.7221737844       -2.6172564025        2.3543044871
 C       -11.0333268352       -3.9462876571        3.7092277560
 C        -6.4737197852        1.0688581149       -0.4103679119
 C        -8.1586475683        2.8338007209        0.6100828165
 C        -9.4729436738        2.3191287342       -6.8555267004
 C       -10.2951142681        4.6675572413       -6.3606465091
 H       -12.6436062118        1.5369468211       -4.1241938784
 H       -11.3843108728        0.8025487777       -5.2909267682
 H       -12.4471358423        2.0103686896       -5.7445871109
 H        -6.6883272291        3.0014280874       -4.0617014640
 H        -7.4894015009        1.9193195583       -5.2801920051
 H        -7.8560731563        0.5892366296       -3.1203259836
 H        -9.3242992883        1.5279725035       -3.3908222660
 H        -8.9978939025        0.6690352123        1.8451005748
 H        -8.3005373886       -0.7925773355        1.1434057457
 H       -10.9545715165       -1.0964439531        0.3837577231
 H       -11.2212388578       -0.3400860990        1.8060260716
 H        -9.5864484451       -1.3383263167        4.9977558882
 H       -10.7426718152       -2.3171273140        5.7676453114
 H       -10.3496616118       -0.1876705902        7.2350795903
 H       -12.0217411643       -0.0938041926        6.5152357696
 H        -9.8390359239        2.8179389359        3.4958200853
 H        -9.3118218847        4.5043327863        4.0653870606
 H       -12.0929718283        4.7270865390        3.1114933438
 H       -11.1138293903        3.6249227332        2.0456652691
 H        -8.8590725649        7.3982707459        0.2684609149
 H        -9.6933740308        8.6501738771        1.0754080151
 H        -8.5510396017        9.6817548450       -0.6679759381
 H       -10.1914281921        9.5754146976       -1.2599868732
 H       -11.3866306267        9.4999312255       -5.8936474861
 H       -11.4913835746       10.5141735633       -4.2621297175
 H       -12.5009637323        9.0345683804       -4.7265520190
 H        -9.7827720337       11.0745833360       -2.7607078698
 H        -8.9786111932       11.2742677169       -4.2652526389
 H        -8.0367461629       10.8914876478       -2.9526240897
 H        -8.1272075751        7.5774165806       -4.6632382100
 H        -7.1250027322        8.9520070904       -4.3138655486
 H        -8.2555763721        9.1036278103       -5.5665325048
 H       -12.4678553600        5.0283903480        0.1608888856
 H       -13.4913082337        6.4012281739        0.2244036339
 H       -13.4115461984        5.3829395937        1.6616526688
 H       -11.2513789075        8.1579731982        2.5992841848
 H       -12.7436529573        7.4248522565        3.0328557371
 H       -12.5684911696        8.4445083066        1.5608899719
 H       -11.5979990490        3.6999482649        7.4666950465
 H       -10.9534392622        2.2791637288        8.3105500731
 H       -12.3312628000        2.1110635514        7.2742928017
 H        -8.2533483105        3.0545081533        6.0115861819
 H        -8.7122153712        2.2967890241        7.5740143695
 H        -9.2365753335        3.9986414854        7.2887220980
 H       -13.5185304214       -2.7760939063        3.0158471663
 H       -12.7448907683       -3.4101788942        1.6415489462
 H       -12.9240760848       -1.7196840478        1.7401829992
 H       -10.0547987628       -3.8544808198        4.1950741315
 H       -10.9549250216       -4.7859314099        2.9772737179
 H       -11.7669054905       -4.0399013501        4.5063299507
 H        -5.7075387415        1.8350442034       -0.2919319932
 H        -6.2590506876        0.5288900281       -1.3142419025
 H        -6.4327365103        0.4585546909        0.4676909981
 H        -7.6847179577        3.7806715630        0.3059445387
 H        -7.6605227473        2.4422762281        1.4596855558
 H        -9.2539129345        2.9284213728        0.8489223748
 H        -9.5184736814        1.2989782178       -6.5157503429
 H        -8.4536394443        2.5546410189       -7.2617904038
 H       -10.1532713079        2.3513373760       -7.6630538930
 H       -11.0532178034        4.4503873973       -7.1666091205
 H        -9.3725179627        5.1663683844       -6.8651116368
 H       -10.7417414158        5.3732119652       -5.6538962660
 Na       -9.9463319874        5.5609202048       -2.8110841921
