117

 C       -11.6011966522        1.4883871011       -4.9168856069
 C       -10.8562759295        2.7630872598       -4.7413029486
 O       -10.9949955073        3.4248971730       -3.6818365072
 C        -9.8240893796        3.3095434672       -5.7958671247
 C        -8.6262328717        3.6249981130       -4.9009151524
 O        -8.3260751783        4.7788666281       -4.5730434122
 C        -7.6377418546        2.4500380480       -4.4644021024
 C        -7.9274457890        1.7246531918       -3.1535100585
 C        -8.3035667993        2.4451074014       -1.7883215216
 O        -8.7295259570        3.5744848206       -1.7535220560
 C        -7.9462045317        1.6927225647       -0.4979113045
 C        -8.9282073530        0.4072219347       -0.3729707142
 O        -9.4544106702       -0.0475504698       -1.3589688195
 C        -9.0438724377       -0.1992651019        0.9787282389
 C       -10.3353333102       -0.9891104323        1.1295415624
 C       -10.3010482487       -2.0748227889        2.2393950141
 O        -9.2470399777       -2.6066451926        2.3550001955
 C       -11.5034286046       -2.4847534771        3.1314776032
 C       -11.6178752926       -1.2529267504        4.1596226481
 O       -12.3600583676       -0.2923718856        3.9046039559
 C       -10.8182888283       -1.2880690829        5.5439647497
 C       -10.9785198132        0.0682970252        6.1588336532
 C       -10.2840506684        1.2567767890        5.5602994701
 O        -9.6261714184        1.2076282857        4.5427148591
 C       -10.3073515703        2.6307672625        6.2420825418
 C       -10.9370141066        3.5557552176        5.1393726735
 O       -12.0777507000        3.8711804852        5.2272736864
 C       -10.1342283638        3.8842051114        3.8379901019
 C       -11.0972650766        4.4711150928        2.7711852932
 C       -10.5805100502        5.7217181765        2.1893502824
 O        -9.4328381252        6.0760332617        2.3643821237
 C       -11.5474153284        6.5301471060        1.3208505271
 C       -10.8815069295        7.1110882281        0.0302924337
 O       -11.2368549192        6.8326297871       -1.1102783703
 C        -9.6160242642        7.9823932021        0.0810417591
 C        -9.4858048651        9.0476800860       -1.0875536958
 C        -8.9727586828        8.4068942793       -2.3454968617
 O        -8.4602655321        7.3128434582       -2.2915816892
 C        -9.2249207585        9.1746805786       -3.7650334041
 C       -10.5951475612        8.6507521634       -4.3036856499
 O       -10.7919748902        7.4700657444       -4.3455873433
 C       -11.6450787164        9.6129723763       -4.8175605278
 C        -9.2278903595       10.7088037091       -3.6332445088
 C        -8.1097568015        8.7245840517       -4.7712056580
 C       -12.7828560382        5.7487924807        0.7944413488
 C       -11.9923703751        7.7933944104        2.1606977488
 C       -11.1099155826        2.7572959056        7.5146713622
 C        -8.8355179040        3.0738725100        6.4608850394
 C       -12.7255863218       -2.6709047463        2.2437968046
 C       -11.2117956454       -3.7989095993        3.9140776835
 C        -6.5246960094        1.1371108296       -0.3461966905
 C        -8.2124285485        2.6384054772        0.7295324108
 C        -9.5303269662        2.1794943957       -6.8218148491
 C       -10.2746910196        4.6246878897       -6.5731191912
 H       -12.3963755267        1.4282223619       -4.2400863004
 H       -10.9094879876        0.6305136827       -4.8226632522
 H       -12.0935096383        1.3306002834       -5.8892501941
 H        -6.6328446480        2.8805824676       -4.3969789451
 H        -7.6517028358        1.6657358637       -5.2525219503
 H        -6.9657335754        1.2234700010       -3.0017716520
 H        -8.6143784820        0.9182757255       -3.3322124072
 H        -8.8348820465        0.4929401739        1.7865893183
 H        -8.1943547082       -0.9252041632        1.0809935873
 H       -10.5246549078       -1.6714109413        0.2302203568
 H       -11.2827274847       -0.4022139566        1.0970264179
 H        -9.7392482208       -1.6268189874        5.3209707060
 H       -11.1801182592       -2.0509573275        6.2087132329
 H       -10.6897774011        0.0330243755        7.2050251017
 H       -12.0291476777        0.1679983315        6.1352756420
 H        -9.6582840468        2.9577998189        3.5948300649
 H        -9.4168573711        4.6453294430        4.0461239723
 H       -12.0206681205        4.7938427857        3.2180125850
 H       -11.3047419733        3.6730883486        2.0021757690
 H        -8.7607964187        7.2429595883       -0.0540729340
 H        -9.4544027475        8.4450198113        1.0197626657
 H        -8.6862866882        9.7631187866       -0.7902159738
 H       -10.4089971170        9.6569339822       -1.2507369266
 H       -11.2501053230       10.1205079185       -5.6839455082
 H       -11.8310185678       10.2735658344       -4.0761137180
 H       -12.5532887980        9.0625659686       -5.1944634401
 H        -9.8759760372       11.1857456910       -2.8905032763
 H        -9.4750850417       11.1890646667       -4.6395956099
 H        -8.2571965008       11.1294969261       -3.3971708566
 H        -8.1116569711        7.6164724916       -4.8218763813
 H        -7.1413949250        9.0847503040       -4.3093002637
 H        -8.2536898542        9.1929094612       -5.7676577568
 H       -12.4172025749        4.9742019240        0.0954526784
 H       -13.4151640713        6.3894193473        0.1740086224
 H       -13.4515842802        5.3405478370        1.5584921890
 H       -11.1882714648        8.5374027218        2.2858419211
 H       -12.2031596761        7.4542004036        3.2078043320
 H       -12.8840585089        8.2629920053        1.8010083718
 H       -11.0508123371        3.7613900525        7.9431076603
 H       -10.7189314747        1.9683214043        8.1756367388
 H       -12.1298442516        2.5254417520        7.2716064425
 H        -8.3550400260        3.2113029031        5.5032646948
 H        -8.3198024932        2.2797799225        6.9897520410
 H        -8.8648276174        4.0436825072        6.9998564886
 H       -13.6830419622       -2.9625354546        2.7829870346
 H       -12.5780337838       -3.4390978079        1.4270532138
 H       -12.9288143214       -1.7144787632        1.7325273851
 H       -10.1546249756       -3.8977294114        4.0130765327
 H       -11.4375971489       -4.5624556177        3.1942481068
 H       -11.7558510531       -3.9599932098        4.8241991028
 H        -5.7900474401        1.9340102166       -0.3067175219
 H        -6.2373918943        0.5316540954       -1.2223069659
 H        -6.5686329570        0.5775624851        0.6172807566
 H        -7.7206671954        3.6025680531        0.5511931521
 H        -7.8615488558        2.1253190674        1.6821690284
 H        -9.2688433192        2.7568965939        0.8238645090
 H        -9.3395414122        1.1869375475       -6.2854003679
 H        -8.6181131768        2.4029264109       -7.3634088809
 H       -10.3634520803        2.0166584524       -7.5781908616
 H       -11.1391018884        4.4713940695       -7.1073315796
 H        -9.5045508003        5.0436295974       -7.1678459640
 H       -10.5397328564        5.3001789638       -5.8141172986
 Na      -10.1515058534        5.4999837269       -2.8294478319
