117

 C       -11.5701249735        1.2026638112       -4.6032136266
 C       -10.9355459576        2.6405355566       -4.5687352228
 O       -11.2945607495        3.4573791662       -3.7748526624
 C        -9.5722958063        2.8194926054       -5.5060761850
 C        -8.4497474659        3.6054437981       -4.7994378212
 O        -8.4871574656        4.8579708065       -4.8117178370
 C        -7.3361145159        2.8997659251       -4.1267131938
 C        -7.5795155268        1.9809217210       -2.8484707021
 C        -8.2709195965        2.6365316745       -1.5932387662
 O        -8.7738846912        3.7298450702       -1.6835887897
 C        -8.1436693359        1.9229639768       -0.2347021646
 C        -8.5572223478        0.3985352950       -0.4625262446
 O        -9.0585224613        0.0915195341       -1.5305711308
 C        -8.6625518712       -0.6418072554        0.6535134711
 C       -10.0365344040       -0.6712728149        1.2951990034
 C       -10.1146977275       -1.7873346948        2.3651916189
 O        -9.1719658312       -2.4487936107        2.7729531257
 C       -11.4962363976       -1.9274037548        3.0560574347
 C       -11.6404776095       -0.6065650956        3.9348968453
 O       -11.8813901569        0.4357136635        3.3580283933
 C       -11.5309972201       -0.7417136101        5.4994202637
 C       -11.3005694593        0.6463544826        6.1580237060
 C        -9.8983311503        1.1255732524        5.9076135628
 O        -9.0478489175        0.2833100437        5.6519823784
 C        -9.5100236196        2.6468331673        5.9730674107
 C       -10.5130571650        3.5967337701        5.3389769594
 O       -11.7087608674        3.5250438619        5.6317282762
 C       -10.0457035070        4.5678911133        4.1606747076
 C       -11.1045484970        5.5593413530        3.6550069319
 C       -10.7149061346        6.3470220287        2.4323949903
 O        -9.5703488227        6.8052040130        2.3965631028
 C       -11.7225886162        6.6665252433        1.2149414140
 C       -10.9601461906        6.6474125997       -0.1072199097
 O       -11.3386908412        5.9491861716       -1.0261074930
 C        -9.8204836195        7.5577555338       -0.2276052489
 C        -9.9895864636        8.4611175443       -1.4688424948
 C        -9.3152468525        8.0517758836       -2.7986724267
 O        -8.3768693514        7.2726603822       -2.8200207596
 C        -9.8709164795        8.7203186165       -4.1419965824
 C       -11.1688441967        8.0732427661       -4.5326627402
 O       -11.3651584642        6.9106716138       -4.1687004294
 C       -12.1781410798        8.7832834390       -5.5104995180
 C       -10.0307644545       10.2171426277       -3.9846119331
 C        -8.7664539839        8.3817297102       -5.2543669683
 C       -12.9027610149        5.6252354905        1.2321522964
 C       -12.2919675478        8.0679437230        1.4178375855
 C        -9.5355349915        3.0328764259        7.5332669093
 C        -8.1152159049        2.8377307913        5.3413370374
 C       -12.6515303746       -1.7697167742        1.9535233490
 C       -11.6163196566       -3.2885065788        3.7989585100
 C        -6.7312376843        2.0682206926        0.4188196347
 C        -9.1977056089        2.4401954193        0.7448498038
 C        -9.0790870664        1.4209210149       -6.0428284825
 C       -10.0893412674        3.6559464919       -6.7513313875
 H       -12.5645396970        1.1786880742       -4.1316587260
 H       -11.0702694638        0.4570831689       -3.9733085521
 H       -11.5976575586        0.7581207680       -5.5271382484
 H        -6.5417742729        3.5800497933       -3.8882448933
 H        -6.9315053491        2.2532075012       -4.9064795103
 H        -6.5771709495        1.6172657742       -2.5586110078
 H        -8.1557360327        1.1079081612       -3.0600660769
 H        -7.9657137799       -0.5045851460        1.4547131599
 H        -8.5590169927       -1.6218760695        0.1884669836
 H       -10.7942083841       -0.8321833598        0.5270268388
 H       -10.2632421759        0.2827624647        1.8459401535
 H       -10.7155290414       -1.4372818437        5.8418034790
 H       -12.4461838485       -1.1490253386        5.7391478742
 H       -11.4925601513        0.5184138967        7.2345391496
 H       -12.0377354684        1.3057509006        5.7835544461
 H        -9.9078825730        3.8453635812        3.3023011218
 H        -9.0544003227        4.9466185932        4.3089114656
 H       -11.3037642881        6.3157309453        4.4062698652
 H       -12.0864193813        5.1500999174        3.4468320621
 H        -8.9015956753        6.9244376680       -0.5561852598
 H        -9.5993773612        8.1396604810        0.6454521281
 H        -9.5630133940        9.4290775998       -1.2193847268
 H       -11.0351187280        8.6710660817       -1.6689445826
 H       -12.9182705431        8.0217270634       -5.8176416948
 H       -11.6413106058        9.2596592566       -6.2979674837
 H       -12.6031635244        9.5905653185       -5.0154169012
 H       -10.8067400521       10.3476219197       -3.2414611083
 H       -10.4141505905       10.6325231387       -4.9521326588
 H        -9.0722032416       10.6389459447       -3.8583971313
 H        -8.6481832207        7.2838585317       -5.1944229935
 H        -7.8387681531        8.9031184894       -4.9384379447
 H        -9.0629396475        8.7842808915       -6.2279204810
 H       -12.5407831326        4.6017459333        1.1437853858
 H       -13.6576409488        5.8828069556        0.4714976228
 H       -13.3083088596        5.7343133044        2.2543545240
 H       -11.5215251353        8.8391682996        1.5287079650
 H       -12.8787377187        8.0635400831        2.3571405819
 H       -12.8185171897        8.3177589672        0.5446151369
 H        -9.5799833466        4.1035614751        7.6344854312
 H        -8.7600425417        2.5789585884        8.1251551154
 H       -10.4184406919        2.6450168297        8.0133306184
 H        -8.1206061551        2.7579719789        4.2712016916
 H        -7.3263485096        2.1710568845        5.6441865056
 H        -7.7085206139        3.8346428884        5.5896403332
 H       -13.6313477987       -1.8481480930        2.5185204117
 H       -12.5231408236       -2.5701915333        1.1946455765
 H       -12.6036088292       -0.7862879209        1.4219825981
 H       -10.8880170264       -3.5589135555        4.5160596860
 H       -11.7394546884       -4.1014199471        3.0994729756
 H       -12.5159010079       -3.1642247469        4.3711822124
 H        -6.4788290835        3.0960045554        0.5176441073
 H        -6.0270872838        1.3954405826       -0.1138129289
 H        -6.8348904328        1.7522227402        1.4821199793
 H        -8.9184783074        3.4259818637        1.1388239950
 H        -9.2296097289        1.8076892469        1.6820578128
 H       -10.1045550664        2.4767283574        0.2021206609
 H        -9.0400569911        0.6201640092       -5.2473899321
 H        -8.1586345952        1.4792585064       -6.5912310114
 H        -9.8584377061        0.9462790894       -6.6628706668
 H       -10.9737112094        3.2508930440       -7.1647323512
 H        -9.3283691124        3.7018608993       -7.5641697423
 H       -10.2928393047        4.6238371018       -6.4214977592
 Na       -9.9007049171        5.2700188058       -2.8552344953
