117

 C       -11.6866540324        1.0587053770       -4.7611821042
 C       -10.6977524825        2.0563045931       -4.3220442295
 O       -10.9235843631        2.9351869894       -3.4511623707
 C        -9.2983918826        2.1390398404       -5.0425828401
 C        -8.4660438354        3.3905330476       -4.6344669745
 O        -8.8324733149        4.4617817000       -4.9809601619
 C        -7.0661706375        3.0784973391       -3.9614107898
 C        -7.1459938898        2.3047290891       -2.6801033242
 C        -7.8690091364        3.0064451670       -1.4515336077
 O        -8.3761757470        4.1081206959       -1.5566711835
 C        -7.9393214179        2.2836279343       -0.0732124537
 C        -8.8097030401        0.9334889208       -0.4157061718
 O        -9.0647204162        0.4856386348       -1.4902157518
 C        -9.1903107403        0.1749798134        0.8152312844
 C       -10.5764600157       -0.5124960924        0.7194223881
 C       -10.5450405298       -1.6766399643        1.7534347161
 O        -9.7918828760       -2.6092243690        1.6373440958
 C       -11.4166758177       -1.5459268530        3.0412205866
 C       -11.3434630885       -0.1548833219        3.7213632835
 O       -11.2376611614        0.9258566104        3.0921445024
 C       -11.4410903593       -0.1507314374        5.2451503375
 C       -11.0861285832        1.2402784390        5.8224658629
 C        -9.6553308608        1.5809464134        5.6860023850
 O        -8.9453805385        0.8952750317        4.9533058172
 C        -9.1025722165        2.8570957404        6.3315803549
 C       -10.0097710107        4.0495739878        5.7330125570
 O       -11.0881114683        4.3226763575        6.1523782382
 C        -9.6330868076        4.6209194179        4.2890257511
 C       -10.8980501750        4.9269220032        3.4560036958
 C       -10.8174024665        6.1225957790        2.4896363383
 O        -9.7757582346        6.7413441601        2.5032587765
 C       -11.8515982868        6.5656380368        1.3400992579
 C       -11.0330866019        6.5081394037       -0.0551043204
 O       -11.1226458496        5.5252165442       -0.8004824321
 C       -10.3347975468        7.7589510849       -0.4261213427
 C       -10.7497620122        8.4154148645       -1.7445556771
 C        -9.8480479291        7.9054945388       -2.9467211101
 O        -8.9205409023        7.1968041771       -2.7883980740
 C       -10.3196249010        8.2484584375       -4.4044000653
 C       -11.5561696609        7.3446206860       -4.7797971477
 O       -11.7855891732        6.2961381980       -4.2753479785
 C       -12.3644823578        7.8590193827       -5.9914334866
 C       -10.6287891338        9.7880608136       -4.5150207003
 C        -9.1109644156        7.9827434495       -5.3893066518
 C       -13.1079129694        5.7020580601        1.3519896829
 C       -12.2898302855        8.0414691507        1.7598071331
 C        -9.1878775531        3.0148142866        7.8098498125
 C        -7.5998012511        3.0496505906        5.8704917320
 C       -12.9210956282       -1.5442166655        2.4576573891
 C       -11.3678394736       -2.7248477794        4.0297437156
 C        -6.5909203190        1.9924806846        0.5646637121
 C        -8.7134125320        3.1450565631        0.9282599328
 C        -8.5153955382        0.7889587195       -5.1124537141
 C        -9.8814890320        2.4036617833       -6.5512604997
 H       -12.4056552013        0.8230439094       -4.0217446984
 H       -11.2116845270        0.1214830788       -4.9830908148
 H       -12.3198322869        1.4012932710       -5.6698321274
 H        -6.4910204228        4.0024339719       -3.8943754131
 H        -6.6367651236        2.3409696842       -4.6787970041
 H        -6.1606980658        1.9559756788       -2.4532381164
 H        -7.7542599407        1.3903080853       -2.7528019228
 H        -9.2039189721        0.7628084845        1.7548572222
 H        -8.4187893828       -0.5359669917        0.9068663012
 H       -10.6808001940       -0.8688730132       -0.3865129037
 H       -11.2741986003        0.3176723924        0.8841869608
 H       -10.6840451947       -0.7921591132        5.5293822902
 H       -12.4340061819       -0.5450196099        5.5448978771
 H       -11.4294793465        1.4058090109        6.8065753312
 H       -11.7483916781        1.9439226956        5.2756318147
 H        -8.9993815951        3.9211528960        3.8443927793
 H        -9.0813597909        5.5612494750        4.4280951711
 H       -11.6817126449        5.2173373206        4.1565287615
 H       -11.2232091457        3.9965705105        2.9727343827
 H        -9.2684794511        7.4911040314       -0.6679284912
 H       -10.2018292156        8.5837347147        0.3643152017
 H       -10.7313444864        9.5128638891       -1.6614579094
 H       -11.7762485371        8.1147469118       -2.0867293102
 H       -13.1087475295        7.1980391946       -6.2381902363
 H       -11.7290611920        7.8381512949       -6.7912016552
 H       -12.8144667217        8.8707858578       -5.7249012127
 H       -11.4487543578        9.9790384657       -3.8233279368
 H       -10.9155082788        9.8925253919       -5.5147209785
 H        -9.7610380612       10.3871017554       -4.1647398990
 H        -8.8352362599        6.9643175899       -5.3860763329
 H        -8.3121041980        8.6181728274       -5.1211774578
 H        -9.4938437430        8.2253017015       -6.3633066084
 H       -12.8089670168        4.6404921386        1.1793700446
 H       -13.8146625557        5.9716642893        0.5528379920
 H       -13.5838585869        5.8141750375        2.3234255037
 H       -11.4215127373        8.4241913367        2.2610078670
 H       -13.1160441002        8.1068599290        2.4301220428
 H       -12.6255274681        8.6752568802        0.9066630036
 H        -8.7453747063        3.9409783818        8.1296891589
 H        -8.5104914345        2.3700561667        8.3338791504
 H       -10.1963652782        3.0149570843        8.1850041584
 H        -7.4589319547        3.8271475208        5.0801334074
 H        -7.1227760158        2.1527661056        5.4244356622
 H        -6.8568040520        3.4235272185        6.5631724206
 H       -13.7004091393       -1.4919408411        3.1864996894
 H       -12.9184886027       -2.5749472077        2.1451585314
 H       -12.9887533351       -0.8391681214        1.6763222255
 H       -10.4028708706       -2.7053036753        4.5550901986
 H       -11.4952666963       -3.6959671534        3.5674240766
 H       -12.1864996891       -2.7482785319        4.7358997121
 H        -5.9970892529        2.9131512255        0.7298480733
 H        -5.9898583528        1.3908468693       -0.0830786670
 H        -6.7423943852        1.4250185975        1.4641587561
 H        -8.1372179815        4.0720347387        1.1116096513
 H        -8.8762262688        2.6754820242        1.8895455713
 H        -9.7381840585        3.4522179474        0.5647938462
 H        -8.0200421505        0.4999198624       -4.2151927819
 H        -7.6550752446        0.8349922096       -5.8427477026
 H        -9.2487261638        0.0480248115       -5.4408834009
 H       -10.2594472313        1.5594711608       -7.0246076830
 H        -9.0751622366        2.8289730049       -7.1325639398
 H       -10.6018161189        3.1202905096       -6.5306798348
 Na      -10.2929249593        4.9533823135       -3.0471774225
