117

 C       -10.7995987355        0.1039551355       -3.5623730830
 C       -10.2542231866        1.4569457481       -3.8365686523
 O       -10.8137850389        2.3845518108       -3.3423713273
 C        -9.0552324628        1.6544673336       -4.8673067517
 C        -8.3162828779        3.0501793706       -4.5894492552
 O        -8.8834310693        4.1239562620       -4.9728927604
 C        -6.9061733453        3.2826083680       -3.9214588894
 C        -6.6411792761        2.6568571266       -2.6134173922
 C        -7.5736009087        3.0895068077       -1.4111143164
 O        -8.3346839544        4.0434813108       -1.4692082016
 C        -7.4369659029        2.2026207653       -0.0480954416
 C        -8.6850930634        1.2091510301       -0.0839113584
 O        -9.2237641354        1.0629024514       -1.1898850487
 C        -9.2114079838        0.6039614490        1.1998361689
 C       -10.5333424538       -0.1949275190        0.8961713878
 C       -10.7830902727       -1.2684430093        2.0244070207
 O       -10.1076489349       -2.2904852106        2.0482429867
 C       -11.9472727373       -1.0402466082        3.0675153805
 C       -11.5522084394        0.3256801143        3.8490984807
 O       -12.2625289838        1.3410202468        3.8328194085
 C       -10.2303150212        0.3796759516        4.5495932784
 C       -10.1140777563        1.4646510980        5.6082293481
 C        -9.0733095208        2.5841421185        5.2961013110
 O        -8.4627973883        2.6604852313        4.2127874308
 C        -8.7317642764        3.6041103848        6.3935956657
 C        -9.5969495046        4.9753282080        5.8377726895
 O       -10.4771978300        5.4054584210        6.5302133960
 C        -9.3619269585        5.5543707111        4.4076861886
 C       -10.6961698222        5.5040097301        3.6695218251
 C       -10.6194275115        5.7074762500        2.0996143901
 O        -9.5514985037        5.5613686616        1.5139336308
 C       -11.9162216336        5.9067481230        1.1887799847
 C       -11.3500360680        6.2287901025       -0.2159167779
 O       -11.5287721113        5.3531850484       -1.0910920994
 C       -10.7867264359        7.6040489831       -0.6150344197
 C       -11.2829701646        8.1842716662       -1.9150243596
 C       -10.5228517432        7.5920271300       -3.2207476875
 O        -9.5369484098        6.9362310148       -3.1096724769
 C       -11.1059283871        7.8306515749       -4.6339176649
 C       -12.1780117890        6.7477865494       -4.9077294534
 O       -12.0500091877        5.5539281540       -4.5469964351
 C       -13.2770381032        7.1350213913       -5.8545877728
 C       -11.6151675736        9.2784649245       -4.7717861079
 C        -9.9785601740        7.5771229128       -5.7212832059
 C       -12.6377058879        4.5921889872        1.1972340282
 C       -12.8052875767        7.0991284168        1.6765260975
 C        -9.3416082906        3.2744732925        7.7595803996
 C        -7.2342556948        4.0586020104        6.4849583797
 C       -13.3395972500       -0.7857712380        2.3614399165
 C       -12.1086384697       -2.3330837974        3.9834560097
 C        -6.2008899274        1.2854919508       -0.0366874249
 C        -7.3961677973        3.2424968857        1.0927064633
 C        -8.0846315947        0.4828487697       -5.0137960828
 C        -9.9193153171        1.8223825230       -6.2417862249
 H       -10.2633566657       -0.2843266158       -2.6859058861
 H       -10.7024150229       -0.7193711527       -4.3108809727
 H       -11.8601143926        0.1868520908       -3.3538874471
 H        -6.8600333271        4.3879600887       -3.8962880241
 H        -6.2342703407        2.9373657653       -4.7549876620
 H        -5.7022089790        3.1528741616       -2.2688010173
 H        -6.5089850725        1.5802818279       -2.6312173716
 H        -9.3485275130        1.3586275770        1.9698123857
 H        -8.4842941499       -0.0915207524        1.6005045322
 H       -10.1949354747       -0.8151609254       -0.0110682670
 H       -11.3028186474        0.5243995216        0.5627983332
 H        -9.4514279252        0.4043435004        3.8039062575
 H        -9.8877384887       -0.4587905458        5.0954360965
 H        -9.5947884508        0.9130751960        6.4605656430
 H       -11.0831426217        1.8221740821        5.9130452837
 H        -8.6493246454        4.9902347525        3.8701860098
 H        -8.9679095641        6.5663985005        4.4697317129
 H       -11.4398632229        6.1568320294        4.1742463248
 H       -11.1037706019        4.4847208389        3.7336779929
 H        -9.6609942671        7.5909259682       -0.6825076781
 H       -11.0608144199        8.3532571046        0.1764305741
 H       -11.1743632476        9.2813115229       -1.9192869071
 H       -12.3677941812        7.9818811539       -2.0449595820
 H       -13.8942305992        6.2729942155       -6.0452418221
 H       -12.8335492567        7.5540210518       -6.6956757568
 H       -13.8725915299        7.9345752708       -5.4051901682
 H       -12.5338122572        9.4817102576       -4.1953416900
 H       -11.8107631056        9.5801870640       -5.7860149715
 H       -10.9860105835       10.0224573509       -4.2921317790
 H        -9.5374625348        6.5542860511       -5.7648901448
 H        -9.0594570870        8.1945739567       -5.5933490842
 H       -10.4119006445        7.8033957606       -6.7540890556
 H       -12.0528057068        3.7687455849        0.8546383401
 H       -13.5298210755        4.5494707177        0.5730421122
 H       -12.9874887613        4.4067849929        2.1894949390
 H       -12.1922313507        7.7621283000        2.2707117193
 H       -13.5035925283        6.6908198673        2.4331764788
 H       -13.4443119311        7.5043313217        0.9254388698
 H        -8.9271932392        3.9372290319        8.5152632217
 H        -8.9466895957        2.2601402036        7.9987473975
 H       -10.4641111979        3.3136140914        7.6972670040
 H        -6.6381845952        3.2873038356        6.0244839140
 H        -6.9664033558        4.3250200852        7.4859509158
 H        -7.1767391521        4.9545006065        5.9069255494
 H       -13.9813917120       -0.3444571004        3.1267495019
 H       -13.7412807566       -1.7974438897        2.1685444110
 H       -13.3795113339       -0.1538585564        1.4682544900
 H       -12.1272784312       -3.2513377971        3.3783073030
 H       -13.0296996560       -2.1811850191        4.5471435607
 H       -11.3034546170       -2.3355716918        4.6993776800
 H        -5.3168075770        1.6627645365       -0.5111415152
 H        -6.3523324973        0.3996292242       -0.6587930871
 H        -6.1507067560        0.8705164258        0.9558671487
 H        -6.4904573119        3.8178590947        1.0889903511
 H        -7.5518437048        2.8668401437        2.0630243731
 H        -8.1895423388        3.9664911308        0.9758367310
 H        -7.3251944234        0.4958149438       -4.3019242570
 H        -7.5727624730        0.5650087411       -5.9865043878
 H        -8.6553700529       -0.3802194034       -4.9959347900
 H       -10.9998970306        1.7283777216       -6.0930997408
 H        -9.5813169349        1.0679425110       -7.0380468083
 H        -9.7818935524        2.8192402519       -6.6882886712
 Na      -10.2516391666        4.7339734659       -3.0909507157
