117

 C       -10.8640689424        7.6317747137        0.5012818239
 C       -11.5792641531        6.5482780995        1.5217612645
 O       -11.9000579839        5.4468522113        1.2177266799
 C       -11.5476952010        7.0271715467        3.1026081256
 C       -12.2247572256        5.8433955756        3.8857780434
 O       -11.7484583411        4.7336267311        3.9973941111
 C       -13.5845743494        6.0907061096        4.5463550195
 C       -14.4916794497        4.8130101309        4.6869807697
 C       -14.5855845892        3.9490813705        3.3781562823
 O       -14.0806950321        4.3534330035        2.3812782835
 C       -15.1996818178        2.4778156181        3.3640535919
 C       -14.0552665923        1.2889673473        3.5543050823
 O       -13.1648204732        1.4774652923        4.2903198021
 C       -14.3833856328       -0.0368413459        2.9286862350
 C       -13.1596937100       -0.6719838291        2.2194972276
 C       -12.7628875231       -0.1788502502        0.7659335822
 O       -12.5290437775        1.0167556985        0.6306895278
 C       -12.4113384848       -1.3553282333       -0.2665314159
 C       -11.0448993775       -1.6524883899        0.3635010687
 O       -10.7780972450       -2.7712288480        0.8325729080
 C        -9.8680297852       -0.5829721445        0.2507897137
 C        -9.1766489957       -0.5181989293        1.5789703994
 C        -9.2595037794        0.9336288253        2.1326899373
 O       -10.1563652942        1.2224051181        2.9262683249
 C        -8.1171676588        1.9474138429        1.9254853708
 C        -8.3795236310        3.0568086755        0.7310912615
 O        -9.5030421590        3.5161760745        0.6504500999
 C        -7.2425948433        3.4289839882       -0.2140551716
 C        -7.1491688429        2.3721903114       -1.3340949395
 C        -5.5993228185        2.4105268880       -1.7591441737
 O        -4.7161941313        2.4146504659       -0.9296954771
 C        -5.2097376933        2.7796216739       -3.2958381614
 C        -5.3686308561        4.3899004350       -3.5875333334
 O        -5.2475284488        5.1602530991       -2.6707027730
 C        -6.0350929855        4.7509414108       -4.8659295687
 C        -6.2285658977        6.2016349738       -5.1917686750
 C        -6.9266801766        6.4374772511       -6.5012458578
 O        -7.1903998790        5.4461043960       -7.2020800207
 C        -7.0948435813        7.8949502250       -7.0055583392
 C        -5.6604494314        8.2709258557       -7.5185897136
 O        -4.5929686522        8.0189852818       -7.0068588167
 C        -5.6878236362        9.3273604621       -8.7868053008
 C        -8.0496731188        7.7606788330       -8.2305635160
 C        -7.4885644376        9.0029571003       -6.0170079040
 C        -3.6688949219        2.6554813933       -3.4322210889
 C        -5.9237279937        1.7839967994       -4.3764962416
 C        -7.9318912308        2.5685584514        3.3768349656
 C        -6.7110667614        1.1825785514        1.7232513922
 C       -13.5351507805       -2.4238058891       -0.3731953782
 C       -12.3339481739       -0.8705469426       -1.7299669111
 C       -16.2271330620        2.2344646673        4.5998133677
 C       -15.9443055002        2.3810746630        2.0265956640
 C       -10.1323530081        7.1683920535        3.7028698352
 C       -12.4476694023        8.2496629597        3.1224850592
 H        -9.8631703731        7.3998345969        0.7295534681
 H       -11.0871103370        8.6320997773        0.6155824936
 H       -11.0418043152        7.3385725805       -0.5448654908
 H       -14.0658302369        7.0571421701        4.0825802557
 H       -13.3756097182        6.3266136941        5.6427497755
 H       -15.5652959497        5.1459934137        4.8569365074
 H       -14.1567308592        4.3153493582        5.5043700980
 H       -15.2576176126        0.0718898829        2.2802814312
 H       -14.5707257291       -0.5898068401        3.8568358970
 H       -13.1688593804       -1.7454679603        2.1845815409
 H       -12.2602272099       -0.3627153318        2.7842737613
 H       -10.2488076577        0.3940327397       -0.0271609241
 H        -9.1536172134       -1.0864369834       -0.4725500219
 H        -8.0608252707       -0.7979440934        1.4867430429
 H        -9.6591463051       -1.1404266177        2.3348713035
 H        -6.4258976119        3.4574466648        0.5566359295
 H        -7.0808848806        4.4094508302       -0.5493202202
 H        -7.8170904808        2.6238991944       -2.1851964783
 H        -7.4548318310        1.5351492792       -0.7774438153
 H        -6.9909680601        4.1573369876       -4.8411582278
 H        -5.5947904024        4.4048606385       -5.8421123024
 H        -5.2158133588        6.6449783516       -5.2785406671
 H        -6.6479478447        6.9444142619       -4.5298569208
 H        -4.7428926252        9.8337062955       -9.0672519203
 H        -6.3660504572       10.0806547088       -8.6216416087
 H        -6.0662103346        8.7726033718       -9.6372859644
 H        -8.4204754790        6.7758311659       -8.4201169485
 H        -7.7405218066        8.1441186450       -9.1169093763
 H        -8.9829622054        8.2572887405       -8.0221925992
 H        -6.6186803966        9.3649331536       -5.4575424958
 H        -8.3336604395        8.6689942151       -5.4286132395
 H        -7.6370006200        9.8841182436       -6.6524246444
 H        -3.2868666113        2.6589750500       -4.4550839315
 H        -3.2754181240        1.9288066477       -2.7841776261
 H        -3.3376977850        3.5729958537       -2.8258505641
 H        -6.1023466513        2.3452299771       -5.2123835472
 H        -6.8575930990        1.3530941342       -4.0733009372
 H        -5.2836222231        1.0133710818       -4.8346707966
 H        -6.9997105842        3.1096071940        3.3960541797
 H        -7.9015702914        1.6506754487        4.0456584852
 H        -8.7959571193        3.0942088213        3.7936401648
 H        -5.7714164155        1.6931933035        1.5601525292
 H        -6.7999080261        0.6516964553        0.7403956165
 H        -6.7169027907        0.3586335351        2.5153164216
 H       -14.4714972730       -2.0520143583       -0.7138067489
 H       -13.5687560865       -2.9154043406        0.5585429025
 H       -13.1804577227       -3.1896797557       -0.9948778279
 H       -13.3073413782       -0.9981871248       -2.0982463426
 H       -11.7510318532       -1.5923820523       -2.2214332494
 H       -12.0375167066        0.2163353783       -1.8615877813
 H       -16.1813925809        1.1991807463        4.8929606261
 H       -17.1628536014        2.6003468596        4.2077422116
 H       -15.9563105758        2.8719611851        5.4430817656
 H       -16.7217982530        3.1697075555        1.8292413396
 H       -16.3683577179        1.3976879096        1.8844231442
 H       -15.2079097929        2.2995109088        1.2369100124
 H        -9.4015983932        7.1377144425        2.9476257398
 H        -9.8627200692        6.2684074846        4.2765913902
 H        -9.9259414099        8.0947898340        4.2547505989
 H       -12.9167439808        8.4365072942        4.1144058616
 H       -13.2537191891        8.2819352252        2.4368799263
 H       -11.7728242187        9.1429912802        2.9446518132
 Na      -11.4363507807        3.2376218747        2.1962545749
