117

 C       -10.9375759545        0.1141979197       -4.0921126387
 C       -10.1909243290        1.4160012206       -4.2285581423
 O       -10.5786606706        2.3670864590       -3.4997894880
 C        -9.1108289463        1.6695780247       -5.3241152958
 C        -8.3678715933        3.0061351041       -4.9214351474
 O        -8.9970301266        4.0049144014       -5.1048171661
 C        -6.9765857256        3.0489052959       -4.1609072470
 C        -6.8398363315        2.2752091375       -2.8565627372
 C        -7.6444037063        2.8195536933       -1.5979866419
 O        -8.3997560094        3.7755816951       -1.7153954877
 C        -7.3357072811        2.2794861691       -0.1849111040
 C        -8.2569483983        0.9950518538       -0.0726797856
 O        -8.3547989489        0.2424801800       -1.0061643811
 C        -8.9002284173        0.5702724040        1.2574667856
 C       -10.3957360601        0.1947277138        1.2784268176
 C       -10.6368398153       -0.6184291692        2.5132713492
 O        -9.7561650093       -1.4248316265        2.8826966271
 C       -11.8971458169       -0.5729556893        3.3620863520
 C       -11.5781233212        0.5959929082        4.4480524572
 O       -12.0232417702        1.7055555127        4.2110822905
 C       -10.6325377463        0.3573798034        5.5990685390
 C       -10.1272290840        1.6212426013        6.3062384289
 C        -9.2108935422        2.5585239941        5.4625738494
 O        -8.9678601939        2.3586695351        4.2923138360
 C        -8.6828261036        3.9150177793        6.1486756024
 C        -9.7474177872        5.0954865552        5.7221431613
 O       -10.6427355318        5.3723541794        6.4882812429
 C        -9.6179070800        5.6603266999        4.2978286444
 C       -10.9966305688        5.5508579993        3.5882228848
 C       -10.7741466825        5.8481846809        2.1000303370
 O        -9.6788417334        6.1145111153        1.6022991219
 C       -12.0217700883        5.6175879741        1.1053899993
 C       -11.3957665024        5.6878385812       -0.2889617066
 O       -11.3685329651        4.7482559699       -1.0878486001
 C       -10.6134431671        6.9344258953       -0.6953226944
 C       -11.2795169362        7.6431141334       -1.9265875691
 C       -10.5401013258        7.5015873769       -3.2471684884
 O        -9.3386021119        7.2497688660       -3.2709431078
 C       -11.2844289046        7.7141818888       -4.6175019216
 C       -12.2666256005        6.4976894331       -4.7712631042
 O       -12.0293705961        5.4902043142       -4.1838527481
 C       -13.5930959624        6.6751441316       -5.6635183730
 C       -12.0091970074        9.0743802187       -4.5475227875
 C       -10.3274587883        7.4990960214       -5.8157961671
 C       -12.5858914497        4.1926940379        1.3279054288
 C       -13.1278937147        6.7171595363        1.2517370632
 C        -8.7050881853        3.8705259356        7.6881168070
 C        -7.2198391221        4.2336910042        5.6975350849
 C       -13.1979471614       -0.1529940529        2.4843128883
 C       -12.0510728056       -1.9800118514        3.9574852328
 C        -5.8755507666        1.8584253900       -0.0170025138
 C        -7.6245034479        3.4113463585        0.8484577502
 C        -8.1519004756        0.4986333426       -5.4457357348
 C        -9.9749168581        1.9816428711       -6.6328471999
 H       -10.4428061754       -0.5597240184       -3.4252220782
 H       -11.0238452762       -0.4850412602       -4.9595972731
 H       -11.9944566156        0.3474749758       -3.7011260596
 H        -6.8476729963        4.1064355475       -3.9733774039
 H        -6.2847836045        2.6409660151       -4.8723462721
 H        -5.7705418071        2.3050306299       -2.6601243423
 H        -7.0475096509        1.1906194230       -2.8338529464
 H        -8.8665545834        1.3819038525        1.9981662515
 H        -8.2832364236       -0.3117920653        1.6408733325
 H       -10.7495783795       -0.3422760105        0.4388160956
 H       -10.9094559948        1.1653821294        1.3084182693
 H        -9.6695427308       -0.1003954563        5.2961907850
 H       -11.0495761112       -0.2982051798        6.3475505813
 H        -9.4909057561        1.4205563276        7.1316926748
 H       -10.9689434562        2.2315725161        6.6152409245
 H        -8.7978017864        5.0889031788        3.7671375017
 H        -9.2527121667        6.6907450648        4.2222507959
 H       -11.6060446606        6.2791773061        4.0694879108
 H       -11.5716325961        4.6729357545        3.6660108294
 H        -9.5366913272        6.6909589101       -1.0117872404
 H       -10.5312339426        7.6263971476        0.1228908450
 H       -11.3521911954        8.7475385086       -1.7616558999
 H       -12.3004379405        7.2503852792       -2.1430320825
 H       -14.2659482360        7.3593772453       -5.2378247806
 H       -14.0748390131        5.7394944884       -5.6465619688
 H       -13.2872360264        7.0678179630       -6.6821442687
 H       -12.6945104942        9.1814180758       -3.7190373430
 H       -12.5800189389        9.5100377917       -5.3919006752
 H       -11.2897825073        9.8455016372       -4.4396567533
 H       -10.0804847104        6.4205955785       -5.9964889238
 H        -9.4147071423        8.1225729543       -5.8061716530
 H       -10.7549859699        7.7583119484       -6.7916125368
 H       -11.8480353143        3.4516331835        1.4898475971
 H       -13.1478447724        3.8675888947        0.4703472666
 H       -13.2338277937        4.0977883693        2.2003145506
 H       -12.6121322576        7.6669987647        1.4847235149
 H       -13.8540659925        6.4787264886        2.0599714676
 H       -13.6820214998        6.8632432810        0.3422900609
 H        -8.2485049160        4.7524790232        8.1284739814
 H        -8.0870150342        3.0213891757        8.0740303797
 H        -9.7986170050        3.8503108945        7.9660586251
 H        -7.1608702338        4.7094102968        4.7372147593
 H        -6.7670220580        3.2685192245        5.6636198135
 H        -6.8512762074        4.9172122730        6.4559186617
 H       -13.3885392655        0.8735404427        2.6649878163
 H       -14.0754465250       -0.5788840030        2.9117137432
 H       -13.1782606870       -0.3792270463        1.3936196936
 H       -12.0484563324       -2.6582093069        3.1088450164
 H       -13.1029592744       -2.0387324668        4.4039035467
 H       -11.2602942889       -2.1983505810        4.6670760698
 H        -5.1971884485        2.5260101562       -0.5065994149
 H        -5.7435852053        0.8321636697       -0.4051785935
 H        -5.5268349332        1.9279496291        1.0278407689
 H        -7.0009435580        4.2884586580        0.6986273753
 H        -7.3664223250        3.0311808990        1.7791441049
 H        -8.6608512590        3.7097009202        0.9222010401
 H        -7.7562642895        0.2315218966       -4.4818091317
 H        -7.3773167964        0.7485541044       -6.1435376235
 H        -8.6063687638       -0.3856715039       -5.8253489214
 H        -9.9706672942        1.1721517866       -7.2958619654
 H        -9.5067372084        2.8260437828       -7.1762099677
 H       -10.9259459861        2.2820581888       -6.4279811082
 Na      -10.0740978104        4.6776277540       -3.1120146917
