117

 C       -10.8667051552       -0.0192017860       -4.3115619551
 C       -10.2825151803        1.4214777887       -4.2630993378
 O       -10.6435508765        2.2045500406       -3.4312842418
 C        -9.2348940506        1.7798126269       -5.3693874556
 C        -8.4215183086        2.9975078376       -4.8966806257
 O        -8.8397608672        4.1386046503       -5.2068429427
 C        -6.9692175322        2.8311282502       -4.2271012228
 C        -6.9790656554        2.2056961767       -2.7929651321
 C        -7.5785818544        2.9667961798       -1.6169006236
 O        -8.4325385793        3.7924364760       -1.8138252471
 C        -7.2606278416        2.3917848256       -0.2076281672
 C        -8.1157275623        0.9582836517       -0.0802089176
 O        -8.2152331587        0.2259994491       -1.0385581568
 C        -8.6241862183        0.5876312526        1.3071899393
 C       -10.1656573546        0.3806399879        1.5068800001
 C       -10.3807443304       -0.3989582476        2.7611168089
 O        -9.4984636209       -1.0144440838        3.2789692845
 C       -11.8433092334       -0.3406260220        3.4332325183
 C       -11.5362251276        0.7234925793        4.5021921086
 O       -11.8863170923        1.8556397191        4.2591824826
 C       -10.7467080437        0.3933082308        5.7064985808
 C       -10.1945881299        1.7267669978        6.4505745830
 C        -9.2366380966        2.5630962332        5.5123756779
 O        -8.9363267967        2.2932306189        4.3666314862
 C        -8.6774478322        3.8796277334        6.1715853682
 C        -9.7051700244        5.0630852221        5.7447177260
 O       -10.6286284317        5.2525691784        6.5082198465
 C        -9.7334913284        5.6452436881        4.2887590392
 C       -11.0899391019        5.5864078133        3.6419649267
 C       -10.8657120715        5.7862962351        2.0998332703
 O        -9.8135180028        6.2858000855        1.7858405771
 C       -11.9262590560        5.4829282153        1.0468913627
 C       -11.3426566330        5.5833190388       -0.4265428889
 O       -11.3800565819        4.6496265184       -1.1620193670
 C       -10.6938317377        6.9660222903       -0.7460434523
 C       -11.2753055058        7.7064716246       -1.9492931444
 C       -10.4704588328        7.4894563672       -3.3129677361
 O        -9.3650983239        7.0209447591       -3.3270878256
 C       -11.3546962837        7.6133574676       -4.5840273111
 C       -12.3896681418        6.3383920017       -4.7751222631
 O       -12.1645100461        5.2410810282       -4.2579830794
 C       -13.6313513576        6.5762106473       -5.6136171124
 C       -12.0690647511        8.9507157248       -4.5447319665
 C       -10.4382001995        7.6028858073       -5.8219550727
 C       -12.6478082464        4.1144877465        1.2742543356
 C       -13.0800998520        6.5581151795        1.0703163204
 C        -8.6230787235        3.7963182619        7.6994130143
 C        -7.3107899156        4.1082695509        5.5804122713
 C       -13.0188071588        0.1182159431        2.5658491749
 C       -12.2046016460       -1.7367970425        4.0651777655
 C        -5.8148306225        1.9197319297        0.0460281000
 C        -7.8184939090        3.3741795827        0.8255356415
 C        -8.3605101772        0.5053615232       -5.7170915961
 C        -9.9553247494        2.0769921691       -6.7573954813
 H       -10.2742385291       -0.8056605616       -3.8156544119
 H       -10.8438501167       -0.3920602703       -5.3324647845
 H       -11.8509751047       -0.0722922264       -3.8855888116
 H        -6.5001402510        3.8080220648       -4.2278873093
 H        -6.5278480748        2.1507146757       -4.9594086816
 H        -5.9198627128        2.0485230217       -2.5476947327
 H        -7.3634150608        1.1876799194       -2.6679621504
 H        -8.3531173847        1.3844544815        2.0181927292
 H        -8.1287866727       -0.3090597560        1.6087665676
 H       -10.6302940597       -0.1802782576        0.6524702153
 H       -10.6670956427        1.3277107982        1.5250084958
 H        -9.9180054915       -0.2542994010        5.4695746240
 H       -11.3303284713       -0.0933614994        6.5279500748
 H        -9.5902552285        1.5464603984        7.3649168094
 H       -11.0781261131        2.3244626933        6.7266471626
 H        -9.0034405489        5.2326770150        3.6287187705
 H        -9.3814671179        6.6899169297        4.3883265827
 H       -11.7887974483        6.3969979623        3.9801971390
 H       -11.6874277593        4.6626737955        3.9371565364
 H        -9.6882401032        6.8419212592       -0.9732973205
 H       -10.7473057983        7.6001892094        0.1792692965
 H       -11.3656582527        8.7660723286       -1.7827906657
 H       -12.2623518209        7.3234045708       -2.1750650439
 H       -13.7640570170        7.6732930149       -5.6813328334
 H       -14.5590206303        6.1931750610       -5.0600050230
 H       -13.4267186362        6.2115846674       -6.6016022035
 H       -13.0482385576        8.9583062144       -4.0933610317
 H       -12.3380354397        9.2914820778       -5.5049514733
 H       -11.5120969288        9.8542493471       -4.2157666015
 H        -9.8353013538        6.7594268898       -5.9304127887
 H        -9.8176602806        8.4623258866       -5.7755589198
 H       -10.8825500853        7.6870011932       -6.7795275305
 H       -11.9370227077        3.2675276286        1.4317179718
 H       -13.3441824239        3.8967964342        0.4668685624
 H       -13.2247764956        4.0449868121        2.1731332863
 H       -12.8866053157        7.4998408899        0.5651520548
 H       -13.4143696452        6.6645840793        2.0647673625
 H       -13.9274182166        6.1605805733        0.4522755886
 H        -7.9990211762        4.6599005972        8.0439698208
 H        -8.1018118376        2.8825714792        7.9483473951
 H        -9.5761278214        3.9033289535        8.1361502691
 H        -7.3887807466        3.6582779334        4.5657573458
 H        -6.6312149467        3.4728232839        6.1810784697
 H        -7.1468691108        5.1816215707        5.5068984372
 H       -12.8798826776        0.9661230060        1.8665578592
 H       -13.8508656107        0.4735307089        3.1845531904
 H       -13.3807062576       -0.7144771712        2.0618538752
 H       -12.1768390918       -2.5892086709        3.3407255876
 H       -13.1903430743       -1.6667476096        4.4434506690
 H       -11.4545705550       -1.8376879767        4.8899891933
 H        -5.0716945571        2.7178855035        0.2230213756
 H        -5.5947093247        1.1807502309       -0.6828093898
 H        -5.7270869469        1.4049621668        0.9668009517
 H        -7.5552465142        4.3977606815        0.5744281324
 H        -7.5317108737        3.1823034229        1.9364182936
 H        -8.9080234745        3.3350893475        0.7323405427
 H        -7.6673571871        0.1832491775       -4.9205160967
 H        -7.8539942141        0.7639942664       -6.6526591066
 H        -8.9221132626       -0.4274146479       -5.9827177967
 H       -10.2299362215        1.1068319639       -7.2391395805
 H        -9.2104972702        2.4722021478       -7.3897935783
 H       -10.8460907394        2.7415972912       -6.7130246290
 Na      -10.0558959559        4.5390700520       -3.2536075937
