117

 C       -10.8653489647        0.1069878616       -4.0625452530
 C       -10.2345781584        1.4890440761       -4.1174883073
 O       -10.6165998844        2.4850153684       -3.4515033425
 C        -9.0718306940        1.6683989487       -5.1837406843
 C        -8.4602601067        3.0091242871       -4.7656107828
 O        -8.9759604695        4.0162310428       -5.1523866599
 C        -7.0725717750        3.0559623371       -4.0530152055
 C        -6.8768051443        2.3011685117       -2.7607897611
 C        -7.5965786897        2.9393399404       -1.5514970481
 O        -8.3964134638        3.8369437178       -1.7378640830
 C        -7.2856913602        2.2455981883       -0.2014884555
 C        -8.3331396868        0.9021583609       -0.1043779801
 O        -8.5126679206        0.2399716127       -1.0969971988
 C        -8.9581116225        0.6602630977        1.2882456241
 C       -10.4250990431        0.1397189708        1.2187596834
 C       -10.6806378678       -0.8057663960        2.4016834042
 O        -9.8576455469       -1.6473806886        2.6871456327
 C       -11.9574860758       -0.6305473706        3.3367257470
 C       -11.5854343233        0.5608896803        4.3009951656
 O       -12.1402322467        1.6319967652        4.2117236576
 C       -10.5194752381        0.3023474075        5.3926062230
 C       -10.1375336663        1.5298183397        6.2518061345
 C        -9.2611741653        2.6675392529        5.4298400753
 O        -8.9920412913        2.3461059686        4.3140769879
 C        -8.7139678007        3.9518526810        6.1956110111
 C        -9.7269498804        5.0206102803        5.6852059268
 O       -10.6072436377        5.4307993564        6.4187948273
 C        -9.6609344465        5.6195377094        4.2478468464
 C       -11.0012467586        5.5559487339        3.5042178687
 C       -10.7518393599        5.7665830436        2.0273601083
 O        -9.6348937655        6.0159434767        1.6168650144
 C       -11.9035310431        5.7082930955        1.0784265279
 C       -11.3453417395        5.7383906616       -0.3214437315
 O       -11.4503470331        4.7570091011       -0.9798907274
 C       -10.6205044733        7.0745477201       -0.7351063298
 C       -11.3536784353        7.6837880354       -1.9361704218
 C       -10.4693114382        7.5709089260       -3.2659673516
 O        -9.3005992500        7.1976834102       -3.2080546393
 C       -11.2358661588        7.7627785249       -4.5856112846
 C       -12.3107457803        6.5763349726       -4.7123812969
 O       -12.0978158544        5.4989043539       -4.2252362002
 C       -13.4970170312        6.6991943970       -5.6227770506
 C       -11.9423786094        9.1074497990       -4.6584652401
 C       -10.2629753954        7.5975571782       -5.7553712261
 C       -12.5204087543        4.2509600147        1.3171609580
 C       -12.9834950739        6.7954047472        1.3807973627
 C        -8.6948997829        3.7585803308        7.7097535969
 C        -7.2503786613        4.2820141924        5.8160200457
 C       -13.1871548819       -0.3030723782        2.4325113937
 C       -12.0765483792       -1.9375018151        4.1126624974
 C        -5.8303175436        1.7845202158       -0.0897085051
 C        -7.5523286595        3.4412100171        0.7105910607
 C        -8.0434481173        0.4780420275       -5.3886589255
 C        -9.8431924182        1.8841650562       -6.5361424595
 H       -10.2881239410       -0.6082088607       -3.4363468910
 H       -10.9484982769       -0.4418390423       -4.9852496296
 H       -11.8996243353        0.2282561601       -3.6498334169
 H        -7.0154290194        4.1451885006       -3.8992706830
 H        -6.3483684013        2.6325518938       -4.8039399922
 H        -5.7908507090        2.2991294909       -2.6129271266
 H        -7.1451148189        1.2214564566       -2.7030596937
 H        -8.8150697969        1.5172021972        2.0204474750
 H        -8.4278019095       -0.1916182451        1.6516654530
 H       -10.4885879502       -0.3987036579        0.2166421615
 H       -11.1210168614        0.9996269092        1.1933116192
 H        -9.5984172956       -0.0361411805        5.0973070288
 H       -10.9187474613       -0.4853329770        6.0902094087
 H        -9.6176893591        1.3217360793        7.1666399882
 H       -11.1355555325        2.0281137439        6.4128319100
 H        -8.9298340520        5.1065652361        3.6625063390
 H        -9.2391647436        6.6210232677        4.2792167685
 H       -11.6976513090        6.2183063298        3.9549410501
 H       -11.5160760511        4.5707794888        3.6042963361
 H        -9.5634531279        6.9138060042       -1.0068377234
 H       -10.5962443515        7.8478800830        0.1291847588
 H       -11.6523080882        8.7184616413       -1.7554955208
 H       -12.2595272480        7.0898908820       -2.1826224883
 H       -14.3000709430        6.9440680107       -5.0215528776
 H       -13.7111935840        5.6950412514       -5.9622597386
 H       -13.3474948371        7.4654840684       -6.3633874443
 H       -12.5189379196        9.4163117165       -3.8095936634
 H       -12.5716641437        9.3120201975       -5.5027913607
 H       -11.2143213093        9.9319762756       -4.8196058175
 H        -9.9358597580        6.5501806414       -5.8907258280
 H        -9.3830674969        8.2921922316       -5.7201750970
 H       -10.6625016849        7.8064405122       -6.7642948664
 H       -11.7835285672        3.4097176382        1.2662707371
 H       -13.1864182675        4.0022500023        0.5181285234
 H       -13.0376998259        4.1121054074        2.2561181925
 H       -12.5757614705        7.7569248435        1.7366345381
 H       -13.6221982645        6.4029906421        2.1328079535
 H       -13.6577411767        6.9289278948        0.4666542162
 H        -8.4203854851        4.7047345893        8.2652439060
 H        -7.8535714561        3.1028049554        7.9588821304
 H        -9.6718628731        3.4500424083        7.9942471626
 H        -7.2104872832        4.8279039512        4.9084131125
 H        -6.7488025853        3.3499617856        5.7376298728
 H        -6.9437108348        4.9153960855        6.6004676794
 H       -13.5889596042        0.7388515011        2.6672167344
 H       -14.0719210784       -0.9296715424        2.6699394791
 H       -12.9354012893       -0.3946909980        1.3849081320
 H       -12.3366496234       -2.6764158858        3.3920984762
 H       -12.8286370648       -1.8894256260        4.8462592415
 H       -11.0933165741       -2.1391411317        4.5368824454
 H        -5.0728158810        2.5719933362       -0.4156806699
 H        -5.6419829988        0.8758038148       -0.6731423877
 H        -5.5838025582        1.6191236177        0.9625134992
 H        -6.8303397367        4.1678159124        0.4538057878
 H        -7.4174383491        3.2802426165        1.8054065699
 H        -8.5192531746        3.8521872071        0.5906672926
 H        -7.7551172655       -0.0022427592       -4.4604235248
 H        -7.2032617071        0.7887134554       -5.9092248761
 H        -8.5468092803       -0.3004009298       -5.9862304107
 H        -9.9008149339        0.8606383591       -7.0287783312
 H        -9.4031149346        2.5906350054       -7.2516431375
 H       -10.8771325005        2.2722350384       -6.3837635908
 Na      -10.1573307316        4.7843139569       -2.9996427931
