117

 C       -10.7966161771        0.1202702006       -3.9483975639
 C       -10.2627242698        1.4831673606       -4.0133806178
 O       -10.7188398974        2.3743902420       -3.4035991790
 C        -9.1125708555        1.6654136815       -5.1102251775
 C        -8.3991204729        3.0771191618       -4.8141487584
 O        -8.9718360846        4.1642310194       -5.0983955412
 C        -6.9845125563        3.1735913243       -4.0869022549
 C        -6.9165113461        2.2531766277       -2.8683618139
 C        -7.6155838194        2.8781197414       -1.6667680560
 O        -8.3421372890        3.8563337850       -1.6825321457
 C        -7.3468799308        2.2991087172       -0.2716156210
 C        -8.3705306345        1.1089846197       -0.0874483306
 O        -8.6174576180        0.3842502675       -1.0614364330
 C        -8.9413448503        0.7570734349        1.2331553580
 C       -10.3778172456        0.0769472679        1.1464067860
 C       -10.6126408888       -0.9370569464        2.3043564202
 O        -9.9190100751       -1.8844980180        2.4421065562
 C       -11.8961418065       -0.7212633034        3.2448169039
 C       -11.6096227806        0.5504205229        4.2065273002
 O       -12.2651935934        1.5748593803        4.1841166324
 C       -10.4352900674        0.3792218078        5.1632618687
 C       -10.1668093089        1.5414968644        6.1123883995
 C        -9.2121463464        2.5441463310        5.4531850833
 O        -8.9393022891        2.4739563582        4.2625314191
 C        -8.8022890390        3.7845447769        6.2302553167
 C        -9.7606880414        4.9968494184        5.7729927446
 O       -10.6312269683        5.4925062823        6.4328376582
 C        -9.5815633066        5.5013552364        4.3369273871
 C       -10.8483178665        5.5358010351        3.5836231045
 C       -10.6358482570        5.7600625733        2.0934834129
 O        -9.5322246739        5.9125558213        1.6591043017
 C       -11.9192377382        5.6892613815        1.1098766796
 C       -11.3793575284        5.8207220492       -0.3323694787
 O       -11.3682041929        4.8866305276       -1.1463309873
 C       -10.7545455763        7.1164387515       -0.7890986310
 C       -11.3890246395        7.7358387911       -2.0024852878
 C       -10.4917956881        7.5238291710       -3.2772013100
 O        -9.3521107629        7.1663542409       -3.1512397643
 C       -11.2106688015        7.7780743166       -4.6140844587
 C       -12.2830157401        6.5822367181       -4.7633416242
 O       -12.0739558488        5.4935544867       -4.1634206546
 C       -13.4646283103        6.8195624595       -5.6318419985
 C       -11.8486437566        9.1893525862       -4.7609097801
 C       -10.1793719413        7.6909681317       -5.7184863240
 C       -12.6032116181        4.3189444741        1.2651939622
 C       -12.8651112595        6.8427953743        1.4981647623
 C        -8.8745457629        3.6418810316        7.7570942244
 C        -7.2750129068        4.2573290913        5.7449619695
 C       -13.1475171906       -0.4452928648        2.4932674641
 C       -12.2156504215       -1.9250862950        4.3021072669
 C        -5.9355871937        1.6551012801       -0.1394426238
 C        -7.5511280647        3.3644375081        0.8728069449
 C        -8.0804368820        0.5240786547       -5.1922161272
 C        -9.7272359458        1.7661934919       -6.4666609268
 H       -10.1009138757       -0.6000156041       -3.4397685839
 H       -10.9185117497       -0.4193514654       -4.9495230600
 H       -11.7169453583        0.1544519695       -3.5002146495
 H        -6.9468864292        4.2651331525       -3.8833836527
 H        -6.2069509814        2.7430781294       -4.7797125457
 H        -5.8444187291        2.1173855525       -2.6044833848
 H        -7.2765672304        1.2355422187       -3.0198374312
 H        -8.9599252143        1.6235802269        1.8787815587
 H        -8.3222955027        0.0213403852        1.6739509795
 H       -10.4041690190       -0.4443872293        0.1076343405
 H       -11.1236799591        0.8928079445        1.1459031245
 H        -9.4563071368        0.2729098437        4.7032798456
 H       -10.5459315952       -0.5308059043        5.7593328577
 H        -9.6624700787        1.2656586038        7.0929627417
 H       -11.1251865390        2.0657469634        6.2843467443
 H        -8.9359708719        4.9056118214        3.7742310097
 H        -9.0577116593        6.4441889898        4.3566725291
 H       -11.5827889575        6.2259293313        4.0914311374
 H       -11.3811136841        4.5399592343        3.6528325845
 H        -9.7184612538        6.8931394343       -0.9689972420
 H       -10.7454476082        7.9489012955       -0.0313319782
 H       -11.3952175773        8.7988929295       -1.8342190798
 H       -12.4049738163        7.4243625922       -2.1915698500
 H       -14.3664539109        6.6746866043       -4.9328597031
 H       -13.5435352947        6.0308878641       -6.3859280416
 H       -13.4453787956        7.7691494462       -5.9915815927
 H       -12.4749027190        9.5559724689       -3.9339343932
 H       -12.4574510312        9.2887307171       -5.6205626675
 H       -11.1839733756       10.0435814738       -4.9840389708
 H        -9.6470056002        6.7634506183       -5.7387446516
 H        -9.4779440915        8.5108871385       -5.6489248261
 H       -10.5323422294        7.7619951871       -6.7544520215
 H       -11.9247938952        3.4779700567        0.9595413616
 H       -13.4202958792        4.1701582077        0.5288636021
 H       -12.9547970344        4.0712666342        2.2618349624
 H       -12.2476597066        7.7389272492        1.6317780190
 H       -13.3843982568        6.6891970143        2.4420678130
 H       -13.6401868359        6.9642905650        0.7060357026
 H        -8.7417244076        4.6321299133        8.1915475395
 H        -7.9740250781        3.1819000653        8.0908828856
 H        -9.8137294716        3.2482741022        8.0585132338
 H        -7.3632536967        4.6009260804        4.7351217061
 H        -6.5840025207        3.4391950114        5.8104149113
 H        -7.0825539053        5.0947088350        6.3593040104
 H       -13.6857094846        0.5258186863        2.7341462251
 H       -13.9412539523       -1.2191701100        2.7339817402
 H       -12.9330496826       -0.4877520751        1.4275066842
 H       -12.8576210659       -2.6484097106        3.8533788953
 H       -12.6703375019       -1.5078553612        5.1282066696
 H       -11.2747365418       -2.3221860719        4.5973504179
 H        -5.1157871433        2.4349869863       -0.0690692701
 H        -5.6295427885        0.9855996200       -0.9537459728
 H        -5.9126470224        1.1303035521        0.8255482050
 H        -6.7341865896        4.0803118231        0.8141258721
 H        -7.4497887178        2.9594968419        1.9117465242
 H        -8.4981857666        3.9155805744        0.8828263569
 H        -7.8687428914        0.0975658225       -4.2157631309
 H        -7.1091478387        0.8474006338       -5.6503861025
 H        -8.5183734388       -0.2786428493       -5.7912601290
 H       -10.1733768206        0.7494624426       -6.7512824091
 H        -9.0559976969        2.0877924661       -7.2755085455
 H       -10.5706362838        2.6029962296       -6.4332912154
 Na      -10.2067012493        4.8242540182       -2.9365417756
