117

 C       -10.8896129982        7.5311826565        0.4653545773
 C       -11.4614834237        6.5871814633        1.4813028491
 O       -11.9621054888        5.6087563227        0.9973753496
 C       -11.6274285653        7.0250487396        3.0107420563
 C       -12.2514289958        5.8381826295        3.8818274581
 O       -11.5129301365        4.8637878705        4.0071758978
 C       -13.6953320995        6.0253415101        4.5649530791
 C       -14.3975361806        4.7739663058        4.7687244000
 C       -14.5773589158        3.9701669614        3.4521785849
 O       -13.9433441595        4.2830418535        2.4665402621
 C       -15.2637082935        2.5362259313        3.5324342963
 C       -14.1329067805        1.4399451278        3.6473079581
 O       -13.0654855627        1.6291601992        4.1954345627
 C       -14.4514858580        0.0411720408        2.8985619183
 C       -13.3288747892       -0.7303561708        2.3067168990
 C       -12.8381832649       -0.1411443154        0.9383007423
 O       -12.4958475608        0.9920094514        0.7824876572
 C       -12.4865003260       -1.1854856507       -0.2541645781
 C       -11.0179581956       -1.6883131725        0.1738637570
 O       -10.7506610252       -2.8075782326        0.5549119701
 C        -9.8917020578       -0.5503419506        0.2649677145
 C        -9.0878496671       -0.5767689860        1.6596421195
 C        -9.2238088811        0.8326782680        2.3062990053
 O       -10.2666845293        1.1647054068        2.7950329159
 C        -8.0686836173        1.8944619055        2.0593136997
 C        -8.4380863572        2.9390430036        0.8418811910
 O        -9.5503727754        3.2897729129        0.4947603731
 C        -7.3348098835        3.4770095939       -0.1588165479
 C        -7.1210057454        2.3613568617       -1.4393605216
 C        -5.6367117636        2.4611251097       -1.7898054426
 O        -4.8802958215        2.4015820116       -0.8389800019
 C        -5.1594860387        2.7200644215       -3.1616219115
 C        -5.5470943211        4.2711882272       -3.5316111611
 O        -5.1165326060        5.1101555975       -2.7358020238
 C        -5.8590708689        4.6702135316       -4.9404962335
 C        -6.0063662125        6.1629872924       -5.1740816929
 C        -6.8267449073        6.3735727505       -6.5874234363
 O        -7.3541363062        5.3556818707       -7.0549559101
 C        -7.0064110704        7.7468514245       -7.2816083841
 C        -5.5311429343        8.3292794940       -7.6308707183
 O        -4.5979736875        8.1715428477       -6.9473773246
 C        -5.5056549676        9.4020968819       -8.6957422727
 C        -8.0715444391        7.4641976515       -8.3440127141
 C        -7.4728522156        8.7663142623       -6.1871250281
 C        -3.6643372430        2.3625147222       -3.3608532792
 C        -5.8726169459        1.6975069930       -4.2791735671
 C        -7.9531860025        2.8776713131        3.3285244085
 C        -6.7115692542        1.2081291269        1.6446789061
 C       -13.4302267212       -2.4391170949       -0.2412579971
 C       -12.3145226761       -0.5990383826       -1.7218914606
 C       -16.3356265543        2.3245104607        4.6903960669
 C       -16.0586857391        2.3943263938        2.2253054520
 C       -10.1826675222        7.3778491205        3.7044921605
 C       -12.4329214472        8.3385425492        3.0428680274
 H        -9.8389412257        7.3667305354        0.2060661510
 H       -11.0656665950        8.5085780819        0.7981884057
 H       -11.4974568468        7.4077650999       -0.3729418906
 H       -14.2375471434        6.6353935300        3.8262401602
 H       -13.6111541076        6.6543377708        5.5182437811
 H       -15.4291251301        4.9795130325        5.0450062608
 H       -13.9457430050        4.1756556426        5.5417921567
 H       -15.0768503175        0.3193979208        2.0434962547
 H       -14.9879515616       -0.5366745336        3.6363745467
 H       -13.6588188195       -1.7009699179        2.0001632368
 H       -12.5052731144       -0.9329600154        2.9839224343
 H       -10.4120364516        0.4242195050        0.2653729906
 H        -9.1129641167       -0.7492593551       -0.5417620306
 H        -8.0653480326       -0.7939741403        1.4895195275
 H        -9.5063114792       -1.2398755269        2.5054422885
 H        -6.6320065210        4.0025150373        0.3128218392
 H        -7.7880632988        4.2979203914       -0.6803133488
 H        -7.7531327590        2.7107348402       -2.2366073616
 H        -7.3838750967        1.4617381857       -0.9501544953
 H        -6.8406065039        4.2118328535       -5.2980909514
 H        -5.1571838724        4.2297545979       -5.6962170820
 H        -5.0813219546        6.7883958533       -5.0688993554
 H        -6.6097800492        6.6879283520       -4.3968013697
 H        -4.5268836602        9.6676948791       -9.0814540318
 H        -5.9223010782       10.3111093676       -8.3338689774
 H        -6.2453672380        9.0304215012       -9.4873592193
 H        -7.8916962954        6.6220234977       -8.9510126647
 H        -8.2650643865        8.3306085907       -9.0357423490
 H        -9.0022157716        7.2045525022       -7.8778052646
 H        -6.7247650324        8.8815680116       -5.4601906668
 H        -8.4588726271        8.3694679049       -5.7762932499
 H        -7.4442669508        9.7124967085       -6.6096670732
 H        -3.5902448229        2.4900358105       -4.4640013284
 H        -3.2966678300        1.4834554517       -2.9109389550
 H        -3.0717614033        3.0883063487       -2.8736273702
 H        -6.5605511989        2.1072146534       -5.0376247682
 H        -6.4736703101        0.9974946066       -3.7340737999
 H        -5.1692053730        1.1358115233       -4.8374721470
 H        -7.1928977129        3.6828586512        3.3288281300
 H        -7.7605624580        2.2083007364        4.0858435635
 H        -8.9429402523        3.1534457505        3.5489121802
 H        -5.7499790251        1.8390510316        1.6761699817
 H        -6.7197874496        0.9072613293        0.5984421705
 H        -6.6283591491        0.2698591522        2.2479457836
 H       -14.4782552389       -2.2389309332       -0.2711502676
 H       -13.0760727169       -3.1552641055        0.5441261983
 H       -13.2026945718       -3.0836532611       -1.1062360916
 H       -13.1129079616        0.1240779307       -1.9865287045
 H       -12.5775452792       -1.4941359949       -2.3262106297
 H       -11.3247648883       -0.2415160444       -1.8969759680
 H       -16.2153087102        1.2410960376        4.9624501839
 H       -17.2637696394        2.5485663518        4.1703775795
 H       -16.2572924549        3.0169556681        5.5917880536
 H       -16.7123155651        3.2531529533        1.9483949586
 H       -16.6633215361        1.4600859096        2.2337294253
 H       -15.3970971871        2.1662168111        1.4553225491
 H        -9.3889173657        7.4622010106        2.9001187077
 H        -9.7686953449        6.6259239772        4.3352835588
 H       -10.1709420244        8.3667229096        4.2193404771
 H       -12.2265845161        8.7729165366        4.0813992419
 H       -13.5375820413        8.4906189275        2.9085000925
 H       -11.9161876691        9.0366381228        2.4200876741
 Na      -11.5246692733        3.3519963203        2.1719158746
