117

 C       -10.7436621302        0.0726626784       -3.6012827459
 C       -10.2904873207        1.5262153297       -3.8463069564
 O       -10.8173623459        2.4454861126       -3.2973757957
 C        -9.0844785289        1.7101847080       -5.0260909576
 C        -8.3964704798        3.0575591045       -4.6407356957
 O        -8.9794663228        4.0368188281       -5.0144452096
 C        -6.9673242270        3.1775654774       -3.9734908608
 C        -6.6340477300        2.6542340575       -2.5987075239
 C        -7.5419904411        3.0226448266       -1.4506004435
 O        -8.2474804797        4.0007837837       -1.4612798398
 C        -7.4941216297        2.2192096592       -0.1304503628
 C        -8.6996409643        1.2672532472       -0.0795972556
 O        -9.0876561520        0.8237176118       -1.1606005508
 C        -9.1709456459        0.6737537302        1.2267736879
 C       -10.4399007397       -0.2146654560        1.0561680276
 C       -10.7634192700       -1.2150036920        2.1148879985
 O       -10.1903026213       -2.2419657617        2.1853013550
 C       -11.9634717759       -0.8720441183        3.1504035131
 C       -11.5682909922        0.3748202024        3.9508746417
 O       -12.2997679172        1.3477502169        3.9156721441
 C       -10.1967204514        0.3770522713        4.6369030256
 C       -10.0646727908        1.4629803825        5.7474719178
 C        -9.0453207373        2.5477573290        5.3393841121
 O        -8.6930001274        2.6376286923        4.1918044297
 C        -8.7916966236        3.7484785687        6.3525422071
 C        -9.6273758959        4.9659509460        5.8131644575
 O       -10.4986894232        5.4001096240        6.5346250941
 C        -9.4175041373        5.5381077884        4.3849152871
 C       -10.8084258560        5.4966163302        3.6055340549
 C       -10.5921612304        5.7291150594        2.1064130358
 O        -9.5189674736        5.6064393325        1.6004869152
 C       -11.9494529303        5.8870902297        1.1814653562
 C       -11.4833122251        6.1145917327       -0.3780736438
 O       -11.4297549612        5.2263649380       -1.1970752787
 C       -10.7795506141        7.4647316900       -0.6833857600
 C       -11.3328548598        8.0306561742       -1.9975948525
 C       -10.5061425617        7.5965925161       -3.2340110542
 O        -9.4705955652        6.9440503773       -3.1083784124
 C       -11.1663028363        7.8750203057       -4.5971187315
 C       -12.1993710417        6.7478371899       -4.8545924766
 O       -12.0013818679        5.5975054934       -4.4249816445
 C       -13.3767119523        7.0232117698       -5.8051103583
 C       -11.6670960811        9.2983830365       -4.8415067967
 C       -10.0862695346        7.6182562425       -5.6796002806
 C       -12.6500078021        4.5492361827        1.2376319652
 C       -12.7980496118        7.0491788497        1.7633914685
 C        -9.2245325909        3.3547630202        7.8370073876
 C        -7.2039494202        4.0429900003        6.3627106102
 C       -13.2585275303       -0.7361601422        2.3099771574
 C       -12.0623309945       -2.1205088149        4.0548210210
 C        -6.1451052327        1.3835822372       -0.0777946807
 C        -7.3394886798        3.3174707279        0.9744355693
 C        -8.1243905922        0.5504238644       -5.0260166947
 C        -9.7934048577        1.8873096848       -6.3573772855
 H       -10.0560264350       -0.4627050121       -2.9095151502
 H       -10.6147283008       -0.5189439486       -4.5326016037
 H       -11.7276691003       -0.0314112689       -3.3458043713
 H        -6.9303669025        4.2347393997       -4.0282696588
 H        -6.2676489557        2.7508238339       -4.7140581322
 H        -5.6351578920        3.0264937689       -2.3486158271
 H        -6.6260149412        1.5525433962       -2.5903687610
 H        -9.4118885051        1.4586511441        2.0484661134
 H        -8.3254080095        0.0978962497        1.6066840901
 H       -10.3801850404       -0.6876114739        0.0683310797
 H       -11.1835546378        0.5237232186        1.0467669346
 H        -9.4776483338        0.5101510538        3.8890466069
 H        -9.8251747554       -0.5660512133        5.1222701362
 H       -10.0578168976        1.0967669978        6.7464905112
 H       -10.9812434871        2.0574623230        5.5504950682
 H        -8.6189673441        5.1072867512        3.7795260758
 H        -9.0867442393        6.6085712844        4.5746330657
 H       -11.4089971250        6.2652403395        3.9744671370
 H       -11.3779597916        4.5795642135        3.7624758898
 H        -9.6999756196        7.2456934081       -0.6920412797
 H       -10.9919354765        8.2659144577        0.1308822866
 H       -11.3127451230        9.1379546926       -2.0216145320
 H       -12.4115711090        7.7296165354       -2.1216550359
 H       -14.2050337802        6.3157579779       -5.6734052111
 H       -13.0285442102        7.0396525509       -6.8605412618
 H       -13.6944362578        7.9553332015       -5.5867861496
 H       -12.6874787851        9.5319521679       -4.6072719719
 H       -11.5028876434        9.6259164442       -5.8409804108
 H       -11.1941189496       10.0716703822       -4.1771065548
 H        -9.5823943642        6.6555654174       -5.5883416914
 H        -9.2406764882        8.3444364790       -5.6989516177
 H       -10.5573454409        7.6346103415       -6.6838041341
 H       -12.0104205477        3.8279343921        0.7098323404
 H       -13.5211989016        4.4899271677        0.6513995396
 H       -12.8844593800        4.1936582722        2.1985879515
 H       -12.2163005739        7.8415806244        2.1773742925
 H       -13.2617786046        6.6500004673        2.6099919669
 H       -13.6769426279        7.2796798991        1.1114231821
 H        -8.6573423070        3.9858501566        8.5960413663
 H        -8.7971431832        2.3547350117        8.0319011392
 H       -10.2816993605        3.4344954945        7.9302345687
 H        -6.7681499270        3.2894818331        5.6979461376
 H        -6.8490978324        3.9790686197        7.4039400467
 H        -7.0645950438        5.0585355462        5.9987590345
 H       -13.9242895501        0.0175247395        2.7666351074
 H       -13.7778661374       -1.6875674035        2.3215514190
 H       -13.0818200821       -0.4442544132        1.3346015862
 H       -12.4181528413       -2.9408616850        3.3718739199
 H       -12.6892571814       -1.9701452340        4.9277726382
 H       -10.9861264343       -2.3436354092        4.3845830513
 H        -5.3233772740        1.9836395412       -0.5239596490
 H        -6.0678598788        0.5217590550       -0.6887374485
 H        -6.0197578398        1.0758400827        0.9259489398
 H        -6.5030340045        3.9192294189        0.7929617388
 H        -7.2318145477        2.8413756014        1.9847796833
 H        -8.1780917271        3.9425675350        1.0924423914
 H        -7.7320872742        0.4574050291       -4.0330640267
 H        -7.2915261503        0.7939275865       -5.6217638242
 H        -8.5983726068       -0.3652220635       -5.3823326778
 H       -10.8337947120        1.7487410003       -6.2664358310
 H        -9.4376352233        1.2499939196       -7.0431667912
 H        -9.6496010841        2.8924905657       -6.7635603281
 Na      -10.1812445467        4.6344757247       -3.1741114929
