117

 C       -10.2520574096       -0.4312352248       -4.6560959022
 C       -10.1791290624        1.0903165856       -4.6090025018
 O       -10.7281055108        1.7434536582       -3.7191299162
 C        -9.3687300561        1.7336140731       -5.7696157574
 C        -8.2294738113        2.6062982578       -5.0503028044
 O        -8.4926323525        3.8575051382       -5.1307155897
 C        -7.0751250269        2.2220343823       -4.1804472539
 C        -7.4033322028        1.4454713887       -2.8616378010
 C        -7.8788888443        2.4816173576       -1.7643770977
 O        -8.5982598281        3.3564261810       -2.1341527405
 C        -7.4128683387        2.4503898743       -0.3032472332
 C        -7.7892654019        1.0409875645        0.3006796852
 O        -7.8266027427        0.1573303160       -0.5100003183
 C        -8.0487569042        0.9264097769        1.7646465461
 C        -9.4743283553        1.2262148152        2.1934425993
 C        -9.9860663578        0.1547388639        3.2256291032
 O        -9.2293532303       -0.7265892939        3.6147939773
 C       -11.5006012078        0.0631831644        3.7833301262
 C       -11.3900143731        1.1673737018        4.8810911418
 O       -11.6854119317        2.2938027266        4.5299197870
 C       -11.0193572754        0.9138970129        6.3450899865
 C       -10.3060903493        2.0642080695        7.0292865607
 C        -9.1005658134        2.6659029335        6.1867688235
 O        -8.6378809878        2.0349430764        5.2844511184
 C        -8.7543144876        4.1797012922        6.4117024657
 C        -9.6865395113        5.1129042759        5.6161044375
 O       -10.5509720720        5.8058265798        6.1210516190
 C        -9.3157714355        5.3077097848        4.1173969576
 C       -10.6568659394        5.2010013772        3.3348786858
 C       -10.5811675056        5.8461849544        1.9754061917
 O        -9.6212049832        6.5260903973        1.6169680348
 C       -11.8982815486        5.5875138398        0.9649196236
 C       -11.6306199190        5.7873400289       -0.5289937902
 O       -11.4823120191        4.8128841365       -1.2489209538
 C       -11.2607456734        7.1808894277       -1.0403080944
 C       -12.0157191223        7.5778425712       -2.3099562067
 C       -11.1147553443        7.2031760405       -3.5903690570
 O       -10.0758124001        6.5832089341       -3.5145674189
 C       -11.8248765149        7.2323698823       -4.9443133933
 C       -12.6551098986        5.8400462209       -5.0272480782
 O       -12.1808957351        4.7913327068       -4.6260077637
 C       -13.9555235553        5.8117269077       -5.8018710733
 C       -12.6795015451        8.4964471136       -5.0803489783
 C       -10.7645695406        7.2234076715       -6.0203304336
 C       -12.4110794420        4.0947874941        1.1608315805
 C       -12.9444311785        6.4643924935        1.6255250150
 C        -8.8461383227        4.6314050260        7.8878407770
 C        -7.2414271472        4.4778410585        5.9709930613
 C       -12.5120083554        0.4274916304        2.7519696323
 C       -11.6838704076       -1.4080497285        4.3476900285
 C        -5.8503808109        2.4201613481       -0.3599679698
 C        -7.9719918192        3.6582650003        0.5629876535
 C        -8.5869227707        0.7132361878       -6.7400592383
 C       -10.2386137743        2.6433028181       -6.6308805941
 H        -9.2686730161       -0.8869244562       -4.5590275451
 H       -10.6588452639       -0.8036526723       -5.5462184785
 H       -10.9425077898       -0.9755124850       -3.8885018184
 H        -6.4736276732        3.1591385431       -3.9877195325
 H        -6.3662286185        1.5975030458       -4.8254189963
 H        -6.5218728502        0.8262970597       -2.6004931315
 H        -8.2096720209        0.8079498991       -3.2422606798
 H        -7.3185601248        1.5323661238        2.3878011401
 H        -7.8509751381       -0.0676093337        2.0748966221
 H       -10.1641236888        1.2132414042        1.3156748473
 H        -9.6249801018        2.2800174319        2.5993940650
 H       -10.4176306556        0.0228681865        6.4467749561
 H       -11.8428430397        0.7670562978        7.0723951963
 H       -10.0352192448        1.6649692636        8.0496482143
 H       -10.9209425007        2.9607984146        7.1953221205
 H        -8.5978221073        4.5453647936        3.8462668545
 H        -8.8659247242        6.2599451196        3.8775490318
 H       -11.3900140505        5.6303569950        4.0262117060
 H       -10.8573264390        4.1505429871        3.2213117707
 H       -10.1895724253        7.1019768008       -1.1954425847
 H       -11.3702035210        7.9342602432       -0.1543830257
 H       -12.1498012307        8.6389920161       -2.4048286850
 H       -13.0223138575        7.1925235564       -2.3204101153
 H       -13.7913860157        5.3569880108       -6.6912054411
 H       -14.3226834747        6.7786473970       -5.9784659504
 H       -14.7987810455        5.3962451411       -5.1720899273
 H       -13.5695498104        8.4550535022       -4.4397874418
 H       -12.9120567201        8.7358257940       -6.0904655420
 H       -12.0402945510        9.3811005436       -4.7431357397
 H       -10.1229652800        6.3808806847       -5.9295297272
 H       -10.1288358638        8.0848865803       -6.1159797395
 H       -11.2897116657        7.0824901471       -6.9328948864
 H       -11.5823093147        3.3554255931        1.2457039036
 H       -12.9512680037        3.7588853902        0.2802413337
 H       -12.9996584107        4.0316644601        2.0574390593
 H       -12.7464754479        7.5209869144        1.5415114729
 H       -13.0799189745        6.3587409779        2.6508916892
 H       -13.9150677044        6.1762834004        1.1626277863
 H        -8.2636230519        5.5763835499        7.9991558300
 H        -8.3008271976        3.9685401924        8.5290859010
 H        -9.8226438528        4.8028911598        8.2107275456
 H        -6.9690206263        3.9917741839        4.9977529939
 H        -6.4679989898        4.1390302187        6.7063810562
 H        -7.1840254249        5.5708308649        5.7874499614
 H       -12.2980601867       -0.0478688790        1.7552328536
 H       -12.5468004810        1.4861732165        2.5151623714
 H       -13.4357897564        0.0235686641        3.0652156493
 H       -12.3934156666       -2.0081618370        3.7522024275
 H       -12.0557409123       -1.2766868823        5.3481299558
 H       -10.7307256530       -1.9745857992        4.5106664392
 H        -5.4566301649        3.3166535841       -0.8979450588
 H        -5.5974425801        1.6797594313       -1.0906759741
 H        -5.4019830845        2.3144062431        0.5890896146
 H        -7.7368477478        4.5604084571        0.0079930025
 H        -7.4058371114        3.6862858766        1.5627477317
 H        -9.0374615869        3.5139404719        0.7501636112
 H        -7.9679087712       -0.0273734264       -6.1726410731
 H        -7.9479725770        1.2452503793       -7.4363784568
 H        -9.2690581933        0.0727181478       -7.3842926735
 H       -11.2313666465        2.1534717045       -6.8246377446
 H        -9.7563163497        2.8433428709       -7.7060860803
 H       -10.3614030190        3.5850178983       -6.1116068800
 Na      -10.2798627495        4.1854759363       -3.3519787264
