117

 C       -10.7017205013       -0.2084389342       -4.4935399732
 C       -10.2720839571        1.2424349970       -4.5875923706
 O       -10.6456269952        1.9534846658       -3.6370308652
 C        -9.3446395687        1.8002082280       -5.6879861885
 C        -8.3907354008        2.9140014767       -5.0111820471
 O        -8.6946198693        4.0218332249       -5.0713906916
 C        -7.0821441311        2.4695614248       -4.2347457939
 C        -7.2820803722        1.8422147467       -2.8546802138
 C        -7.6959584324        2.8029828012       -1.7488565828
 O        -8.2169771680        3.9092609426       -1.9340535602
 C        -7.3954065984        2.3656137310       -0.2854957094
 C        -7.9581428554        0.9183083793        0.0198884352
 O        -8.4234630080        0.1844320487       -0.8390455226
 C        -8.0077236763        0.5115905429        1.4822590997
 C        -9.4779377587        0.6576239465        1.9339012625
 C        -9.9201906832       -0.0408896420        3.2214646563
 O        -9.2821906893       -0.8861000735        3.8536252335
 C       -11.4700598721        0.1642493234        3.5767980685
 C       -11.6229728547        1.2880998642        4.7366745676
 O       -12.0993872042        2.3214242699        4.3307724632
 C       -11.2292583633        1.0249498277        6.2368048686
 C       -10.2413065389        2.0082870974        6.8437792444
 C        -9.1947116368        2.5129620075        5.8615001759
 O        -8.9160026754        1.9731789048        4.8170398986
 C        -8.5899296553        3.9342945038        6.2556997987
 C        -9.7896631820        4.8390498433        5.7375925402
 O       -10.7762077299        4.9928314878        6.4306384354
 C        -9.7680440211        5.3528668720        4.3048862361
 C       -11.1012711655        5.2044396565        3.5612143997
 C       -10.9578749558        5.6789269007        2.1259267453
 O        -9.9855094927        6.3848162109        1.9270742478
 C       -11.9451303404        5.4062508024        0.9771466199
 C       -11.2879174006        5.6822259919       -0.4287568021
 O       -11.2407325189        4.7288008098       -1.2115813458
 C       -10.7574303788        7.0972619628       -0.7501949546
 C       -11.2851412645        7.6936349534       -2.0250012963
 C       -10.7851629023        7.0691069586       -3.3445599173
 O        -9.7363144509        6.4004665020       -3.3509541555
 C       -11.5993319038        7.3996218029       -4.7524598742
 C       -12.5259506609        6.1235717853       -5.0476069747
 O       -12.1102061273        5.0377196375       -4.7995877070
 C       -13.9514280488        6.3286897852       -5.7606065330
 C       -12.3987282325        8.7061811830       -4.6572998877
 C       -10.6566224978        7.4098821088       -5.9317431790
 C       -12.3457231058        3.9550749842        1.0904127760
 C       -13.0591871852        6.3989882373        1.1755376455
 C        -8.2932957498        4.2211184675        7.7915763459
 C        -7.2051234350        4.1166645994        5.5868541325
 C       -12.2725040510        0.6472289720        2.3293223480
 C       -12.0348871741       -1.1871103793        4.0150647817
 C        -5.8359670786        2.5548288495       -0.1046599677
 C        -8.1142930300        3.4880237455        0.5468561981
 C        -8.4423241092        0.7231010257       -6.1860552214
 C       -10.1518737002        2.4628616941       -6.7941796426
 H        -9.8779404982       -0.9159277584       -4.4258712050
 H       -11.2994087016       -0.5677491107       -5.3193803393
 H       -11.1421537118       -0.4288251526       -3.5137628121
 H        -6.3854194011        3.3322501968       -4.2836438741
 H        -6.5454127969        1.7240077740       -4.8568981357
 H        -6.3797916579        1.3197422847       -2.5932794663
 H        -8.0194660469        1.0266585159       -2.9019197178
 H        -7.4599719562        1.2201452618        2.1046149253
 H        -7.6030762057       -0.4559483614        1.5486041272
 H       -10.1314330188        0.3364065450        1.1051603466
 H        -9.6951895201        1.7122631405        2.0546051420
 H       -10.6969491704        0.1192864409        6.3782878833
 H       -12.2071429954        0.9914474482        6.7891729628
 H        -9.6610053466        1.6480745027        7.6853661959
 H       -10.6683688708        2.9962916016        7.2221132666
 H        -9.0292397793        4.7974452461        3.7654421110
 H        -9.5926939545        6.4104918100        4.1939720593
 H       -11.8394422161        5.8574803132        4.0992051352
 H       -11.5649357923        4.1421829752        3.6321665685
 H        -9.6713690852        7.0662455799       -0.6831669870
 H       -11.0677122106        7.7822426092        0.0205581364
 H       -10.9780232375        8.7304210487       -1.9945643397
 H       -12.3644192482        7.7112497698       -2.0415366830
 H       -13.8319285856        6.0611724010       -6.8358447587
 H       -14.3244538917        7.3294969753       -5.6371735703
 H       -14.6170519604        5.5214275727       -5.3304691920
 H       -13.2692433314        8.6298324615       -4.0022122961
 H       -12.8217610181        9.0594426263       -5.6514571779
 H       -11.8785282560        9.5421980316       -4.2120253312
 H       -10.1840424142        6.4482956756       -6.0838399879
 H        -9.7699179051        7.9869159902       -5.7759386028
 H       -11.0698946983        7.7315369073       -6.8338624258
 H       -11.5024267526        3.2817980609        1.1340674317
 H       -12.9340944475        3.7066111445        0.2296644608
 H       -13.0292885393        3.7015353905        1.9000076914
 H       -12.6744059634        7.3432801852        1.5679480366
 H       -13.7637318523        5.9905941653        1.9025394063
 H       -13.6058323072        6.7287093536        0.2888752730
 H        -7.8043900743        5.1747371511        7.8178289165
 H        -7.7825649239        3.3759490229        8.2268083820
 H        -9.2149170144        4.2743170476        8.3741265625
 H        -7.2562781221        4.2197209374        4.4750442633
 H        -6.6071499208        3.2348714277        5.8803790446
 H        -6.6657376122        4.9054729761        6.1634400353
 H       -12.6994017379       -0.1404971828        1.7673363995
 H       -11.7820604753        1.2992776899        1.6836914729
 H       -13.1007031760        1.3452354291        2.5656459092
 H       -11.8981342124       -1.9546570766        3.2383260055
 H       -13.1550342385       -0.9315351998        4.1435620478
 H       -11.5833815088       -1.5475234401        4.9541385167
 H        -5.4704866364        3.3500515505       -0.7365394145
 H        -5.2546293082        1.6388330578       -0.2371093040
 H        -5.6551996534        2.7750756287        0.9554003580
 H        -7.6591179932        4.4454271225        0.1737038600
 H        -7.8645238226        3.3683400127        1.5734420133
 H        -9.2143720933        3.5612805328        0.3438768008
 H        -7.6370037290        0.3835843974       -5.5045011502
 H        -7.8773740118        1.1114006248       -7.0241533848
 H        -8.9799891295       -0.1661343183       -6.5706683956
 H       -10.9517557500        1.8101077321       -7.0523672757
 H        -9.4802608121        2.7108408945       -7.6466487084
 H       -10.6122019558        3.3669087332       -6.4165430904
 Na      -10.1912165301        4.2381027913       -3.2414353393
