117

 C       -10.6223092815       -0.3206905473       -4.5267628222
 C       -10.3899294361        1.1354149509       -4.4694114879
 O       -11.0837718388        1.8804557048       -3.8803532999
 C        -9.3241346003        1.8230862179       -5.4646747412
 C        -8.3493115319        2.8259592603       -4.5820796209
 O        -8.6082430494        4.0007952649       -4.4341093292
 C        -7.1247529542        2.1477624829       -3.9384188073
 C        -7.5072210382        1.5192135976       -2.5752023862
 C        -7.8389525916        2.5291659178       -1.5138305764
 O        -8.8023912166        3.2591675494       -1.6318421668
 C        -7.0980263110        2.4193489768       -0.1114882263
 C        -7.6491806991        1.0947871320        0.5398785715
 O        -7.6833641215        0.0945961141       -0.1848607924
 C        -8.3284171721        1.1779776594        1.9165424884
 C        -9.7679690484        0.6014873584        1.9491116061
 C        -9.8836667369       -0.4080039725        3.0830807165
 O        -9.0998986490       -1.2625611400        3.2499515087
 C       -11.1523632245       -0.2735634120        3.9755769266
 C       -10.8946519472        1.1134629491        4.7241788113
 O       -11.1759331118        2.1607716270        4.1613340981
 C       -10.1973548254        1.0937419059        6.0256358816
 C       -10.1555797428        2.5146879433        6.6375025673
 C        -9.0200965407        3.3614066063        5.9918133292
 O        -8.2381277611        2.8429839400        5.2102837303
 C        -8.9187050277        4.9107177311        6.2911040109
 C        -9.6037026344        5.9007001999        5.3203509350
 O       -10.1555418560        6.8860114093        5.7516284695
 C        -9.3199318082        5.7079267018        3.8857301615
 C       -10.5648457864        5.4916013798        3.1102250366
 C       -10.4983941297        5.5702326116        1.6368670783
 O        -9.4469407501        5.6437093510        1.0965492109
 C       -11.9089907154        5.5288520857        0.8572661193
 C       -11.5968871944        5.6077501947       -0.5929642409
 O       -11.6350769884        4.5425791191       -1.2348782294
 C       -11.1724395272        7.0348812802       -1.1808437623
 C       -11.9508160232        7.4319688119       -2.4683135565
 C       -11.3512063224        6.7810499637       -3.7066219367
 O       -10.1767096180        6.4395674543       -3.7499127739
 C       -12.1165185178        6.8930447965       -5.1522876907
 C       -13.0241411541        5.6077952909       -5.1520515714
 O       -12.6090735550        4.6347569973       -4.5803183677
 C       -14.3178868469        5.4630069434       -5.9552877690
 C       -12.9404505643        8.2477684028       -5.2114590836
 C       -11.0201238513        6.7977026922       -6.2575181180
 C       -12.5480198738        4.1187447630        1.1998059378
 C       -12.9815503107        6.5588754553        1.3674225606
 C        -9.2976522861        5.2263381449        7.7650116978
 C        -7.4548183956        5.4817439699        6.1571608187
 C       -12.4501949736       -0.2014871037        3.0963230405
 C       -11.2280844338       -1.3949122675        5.0108964007
 C        -5.5640577709        2.0507002930       -0.4657813883
 C        -7.2706673076        3.7321745235        0.8059416528
 C        -8.4398182680        0.7481502423       -6.2132548717
 C       -10.2232014835        2.5421889175       -6.4944163135
 H        -9.8610652254       -0.8864486192       -3.9249700295
 H       -10.4245314918       -0.7555297543       -5.5309008615
 H       -11.5622534180       -0.5449141601       -4.2123068992
 H        -6.3927576322        2.9184696889       -3.8338102744
 H        -6.7938697777        1.3181688940       -4.5372144793
 H        -6.7649192197        0.7616650018       -2.3287025148
 H        -8.3704281602        0.9337015609       -2.7723661771
 H        -8.3145224102        2.2289500650        2.3222162717
 H        -7.7750975566        0.5865762918        2.5562390197
 H        -9.8398395976        0.0100674795        1.0630182438
 H       -10.4989819406        1.3829535252        1.9353427780
 H        -9.2673723949        0.6898884930        5.8298273751
 H       -10.6244820293        0.3519844514        6.7596651739
 H        -9.9971729489        2.4599559717        7.7224995534
 H       -11.0783252264        3.0504808986        6.4023457080
 H        -8.6389525574        4.8683185284        3.7805840768
 H        -8.8053010197        6.5363694603        3.4130637248
 H       -11.4374623948        6.0386276197        3.5794373066
 H       -10.8086408863        4.3877481363        3.2768154087
 H       -10.1302671537        6.9759041985       -1.3005837414
 H       -11.4284195198        7.7434249491       -0.3489156849
 H       -11.7072562561        8.4707515194       -2.7349661013
 H       -13.0176628308        7.2269896154       -2.2924215538
 H       -14.4946643344        6.3963221357       -6.6306078552
 H       -15.2401472019        5.4069177773       -5.3032962482
 H       -14.2133971616        4.5869216033       -6.5306944764
 H       -13.6513747818        8.2429016220       -4.4132146185
 H       -13.4141349223        8.3013248978       -6.1913903545
 H       -12.1943416362        9.0254005124       -5.0448088840
 H       -10.5696926023        5.7560418132       -6.3432132145
 H       -10.2776578960        7.6551704531       -6.2168657987
 H       -11.6176712790        6.9186273923       -7.1779271543
 H       -11.8316527545        3.2767117895        1.0522539411
 H       -13.4129720933        4.1488276468        0.5937543984
 H       -12.9139087589        4.1280413312        2.2348983110
 H       -12.5582278809        7.5507556395        1.4292950783
 H       -13.3514501248        6.2134974320        2.2993142306
 H       -13.8213439023        6.7802111738        0.6580869286
 H        -9.3676682691        6.3390289530        7.8389742706
 H        -8.6723018034        4.8126987414        8.5758291449
 H       -10.2689456645        4.8182772355        8.0705848619
 H        -6.9061370111        5.1434802965        5.3054528935
 H        -6.8623915347        5.2312697458        6.9966827012
 H        -7.3778845055        6.5569817252        6.1139136444
 H       -12.2368010353       -0.8418648494        2.2276680468
 H       -12.7100010270        0.8153305151        2.8769536253
 H       -13.3943585102       -0.5803545275        3.5567841808
 H       -11.9378182611       -2.1561355234        4.8064481658
 H       -11.5900991001       -0.9469327209        5.9768959749
 H       -10.3261966924       -1.9339677534        5.1431014094
 H        -5.1090890265        2.8896279995       -1.0244419557
 H        -5.5403913642        1.0617270690       -0.9348231299
 H        -4.9625620660        1.8695372428        0.4005774108
 H        -6.8283780424        4.5710167127        0.2803766682
 H        -6.7715427613        3.5769465518        1.7074461763
 H        -8.3287910558        3.9686758920        0.9175668636
 H        -8.0629142173        0.0079893725       -5.5094938896
 H        -7.6336074016        1.1326102349       -6.7538442657
 H        -9.1308482842        0.2173577276       -6.8829169117
 H       -11.0481245570        1.9178714885       -6.6442755058
 H        -9.7951554971        2.7679193593       -7.3535476108
 H       -10.6639037694        3.4092125066       -6.0138821931
 Na      -10.7049343980        3.9112900435       -3.1702865629
