117

 C       -10.6366997066       -0.3491107171       -4.5580659058
 C       -10.3437933344        1.1042896849       -4.5461097061
 O       -11.0586667826        1.8708116892       -3.8589173782
 C        -9.2970285178        1.8053560163       -5.4522108980
 C        -8.4181176866        2.8396699993       -4.5901219832
 O        -8.7442516254        3.9644281561       -4.4661358364
 C        -7.1514777642        2.2124943837       -3.8703484638
 C        -7.5477343942        1.4706501344       -2.5669462168
 C        -7.9177289664        2.4688882648       -1.4181619004
 O        -8.7057035219        3.3709508306       -1.6250929482
 C        -7.1205475498        2.3077363160       -0.0887496609
 C        -7.7423215837        1.0625767873        0.5505466210
 O        -7.6768815465        0.0141449183       -0.0587565348
 C        -8.3698697429        1.1584174559        1.8967811735
 C        -9.8155203741        0.5037906407        1.8140325493
 C        -9.9181139603       -0.4802174795        3.0351752266
 O        -8.9564922727       -1.2257163856        3.3429376933
 C       -11.1020877814       -0.2623856127        3.9991748753
 C       -10.7924876311        1.1655492315        4.6554187248
 O       -11.1773546397        2.1779533588        4.0896458871
 C       -10.0015068696        1.2567070777        5.9877235958
 C       -10.1013785457        2.6324762543        6.5563721506
 C        -9.0273352464        3.5131474947        5.9373287962
 O        -8.2399408864        2.9539863700        5.1637316173
 C        -8.8159479458        5.0119979098        6.3694204504
 C        -9.5703443364        6.0040627834        5.3138513626
 O       -10.2221289982        6.9232609672        5.6846531667
 C        -9.3518725907        5.7879385632        3.8108866087
 C       -10.6889729352        5.4498058907        3.1414424122
 C       -10.5778174308        5.5641282091        1.6328306486
 O        -9.5328852256        5.7210963890        1.0290088334
 C       -11.9972805801        5.5143520375        0.8798216411
 C       -11.6907808294        5.5522313845       -0.6029774841
 O       -11.6567476090        4.5176950081       -1.2456690459
 C       -11.2406215375        6.8506730652       -1.1965784392
 C       -11.9127077291        7.3980485943       -2.4768681007
 C       -11.1908743155        6.9402001726       -3.7879609624
 O       -10.1258992937        6.3376142044       -3.7452216240
 C       -12.1102244625        6.9439013167       -5.1629988423
 C       -12.9853644587        5.5767856938       -5.1584038924
 O       -12.6212364716        4.6112498392       -4.5165197057
 C       -14.3159017902        5.3950460079       -5.9063553329
 C       -12.9998550654        8.2105462845       -5.1870954673
 C       -11.1506834351        6.8259495417       -6.3276103974
 C       -12.5900043272        4.0316211824        1.1968154616
 C       -12.9378202691        6.6241873517        1.3498627516
 C        -9.3767041801        5.3257645607        7.7772301985
 C        -7.3591266156        5.4505015481        6.1779885836
 C       -12.3965814383       -0.2556924533        3.1339634978
 C       -11.1396446498       -1.3505602966        5.0131410950
 C        -5.6577642848        2.1333511465       -0.3908922139
 C        -7.1027166005        3.5485462665        0.8153416958
 C        -8.5359740479        0.6488623016       -6.2165656029
 C       -10.1650043328        2.5647066245       -6.4638874922
 H       -10.0047447843       -0.9120966609       -3.9372541678
 H       -10.5206493789       -0.8180101678       -5.5220788257
 H       -11.7320353511       -0.4716517270       -4.1587018742
 H        -6.5243467215        3.0868366917       -3.5681735586
 H        -6.6003733613        1.5338363521       -4.5686670476
 H        -6.6977832022        0.8884323128       -2.2282522029
 H        -8.2810983290        0.7005162893       -2.7893236541
 H        -8.4634567197        2.1147267553        2.2985120585
 H        -7.7214601595        0.5504581786        2.5296846006
 H       -10.0180613933        0.0404283333        0.8159899867
 H       -10.4376937970        1.3262178104        1.9681550441
 H        -8.9943058392        0.9895504691        5.7783582431
 H       -10.2822387982        0.5151673937        6.7577677774
 H       -10.0172295608        2.5517733240        7.6559642553
 H       -11.0829701913        3.1176442180        6.2590745423
 H        -8.5464238275        5.1278277112        3.5732312403
 H        -9.1081319297        6.7495030936        3.3316305232
 H       -11.4132429001        6.2093922821        3.4974320184
 H       -11.1448811312        4.4225213224        3.4601866685
 H       -10.1107829767        6.6916586719       -1.3778869076
 H       -11.3584317082        7.5421093192       -0.3948813489
 H       -11.8827941399        8.4638329124       -2.4659837682
 H       -12.9038028285        6.9923602275       -2.5131801823
 H       -14.6205651826        6.2845174996       -6.4705807517
 H       -15.0729035873        5.3349623601       -5.1207965934
 H       -14.3170723928        4.5165278113       -6.5277585680
 H       -13.7554738151        8.1497930877       -4.3960935743
 H       -13.4106025699        8.3143944934       -6.2252911251
 H       -12.3197561340        8.9825337633       -4.9433862981
 H       -10.8187959769        5.7481684042       -6.3699894024
 H       -10.2871167528        7.5159837371       -6.3339168191
 H       -11.7698338087        6.9589167062       -7.2654695796
 H       -11.8931425641        3.3334444063        0.8368575767
 H       -13.5545975615        3.9910224410        0.7193349995
 H       -12.7405080865        3.9322521989        2.2552477245
 H       -12.3988696348        7.5655197494        1.4071537418
 H       -13.5240412763        6.4250391945        2.2942799979
 H       -13.6024137592        6.8443519729        0.5615318257
 H        -9.4765396420        6.3660853811        7.9614665437
 H        -8.8472542927        4.8529513500        8.6106653138
 H       -10.3743918617        4.7909132755        7.9258843280
 H        -6.9917211210        5.2216052800        5.1743591628
 H        -6.5804926359        5.0613537326        6.8265215943
 H        -7.2201892533        6.5276017918        6.3458967008
 H       -12.2514861059       -1.0440888898        2.4906559142
 H       -12.4919241431        0.6991972261        2.6636432115
 H       -13.3691303219       -0.3988995755        3.6260550938
 H       -11.6790494810       -2.2387779765        4.5880966126
 H       -11.6553639562       -1.0328886024        5.9648392502
 H       -10.1614761861       -1.7915643326        5.2284248707
 H        -5.3427937278        2.8631298848       -1.0943306980
 H        -5.4320723557        1.0851548695       -0.6294616997
 H        -5.1011383571        2.2527555485        0.5775703136
 H        -6.6436109104        4.4113792578        0.3288427998
 H        -6.5721092414        3.3229697065        1.6901315894
 H        -8.1428206172        3.8002416309        0.9698185584
 H        -8.3357412246       -0.2074453750       -5.6269409722
 H        -7.5622389069        0.9304360931       -6.6484517010
 H        -9.2050600918        0.3879853071       -6.9711592252
 H       -11.1314952969        2.0711695124       -6.5358063012
 H        -9.7024628743        2.6710853341       -7.4503704569
 H       -10.3899662746        3.5209973939       -6.0757467586
 Na      -10.6534589594        3.8657612752       -3.0529869185
