117

 C       -11.0152862264       -0.2993266074       -4.7642880067
 C       -10.3331357847        1.0268200147       -4.5586369435
 O       -10.6872094445        1.7525768420       -3.6451270627
 C        -9.3150513473        1.4629976094       -5.6107618521
 C        -8.3729111762        2.5424577229       -4.9165258244
 O        -8.6318284911        3.7106610519       -5.1254441479
 C        -7.2096024645        2.0936000965       -3.9752917613
 C        -7.7353599989        1.5180202342       -2.6589591551
 C        -7.8709283764        2.5794256183       -1.4831140960
 O        -8.6544857118        3.5173829357       -1.5069550263
 C        -7.0502136225        2.3626474825       -0.1470375083
 C        -7.6575160489        1.0080846454        0.5393562233
 O        -7.4914429524       -0.0513190243       -0.0417986294
 C        -8.6267560036        1.0945069731        1.7653493649
 C        -9.4961093086       -0.2583983515        1.9327114920
 C        -9.6877928919       -0.6428415904        3.4292690684
 O        -8.8552534279       -1.2966000541        3.9194075489
 C       -10.9542576656       -0.1663243694        4.2265369172
 C       -10.8014529600        1.2753635271        4.5967967156
 O       -11.2491968897        2.1941322861        3.9557325830
 C        -9.8910596440        1.6524637682        5.8056703866
 C        -9.9483618006        3.0832724595        6.2767188303
 C        -8.8157787427        3.9391155381        5.6192831281
 O        -8.1692415631        3.5729658489        4.6906464769
 C        -8.7568389521        5.3730984532        6.2398648396
 C        -9.6593759180        6.2356006849        5.3466662680
 O       -10.4511960536        7.0063458749        5.8935522550
 C        -9.4619463479        6.1456304049        3.8139714044
 C       -10.7524148982        5.3574429438        3.2492866895
 C       -10.8355338365        5.6692607067        1.7336958593
 O        -9.8716106543        5.9650434983        1.0588601905
 C       -12.2277710232        5.4449567950        0.9871444846
 C       -11.8592290459        5.3649010790       -0.5634066505
 O       -12.0625641857        4.3806885216       -1.2337263766
 C       -11.0969437447        6.5393248017       -1.1459317966
 C       -11.8768626999        7.1907988468       -2.3229490994
 C       -11.2824878424        6.8120743263       -3.7452594674
 O       -10.1438984942        6.4717269025       -3.8560627830
 C       -12.1595180206        6.7213877847       -4.9553397092
 C       -12.8698067413        5.2993839787       -5.0002767695
 O       -12.3804044104        4.2683177900       -4.5759086425
 C       -14.2516356748        5.3119512592       -5.6929246453
 C       -13.2010592788        7.8846793801       -4.9372006236
 C       -11.3385676932        6.8580133086       -6.3188230085
 C       -12.8710056807        4.1325740046        1.5170283067
 C       -13.0981562623        6.7246373164        1.1490861749
 C        -9.2259190726        5.4026707671        7.7256228143
 C        -7.3057125943        5.9825421369        6.0720408301
 C       -12.2201241432       -0.4043821410        3.3760500383
 C       -11.0770462134       -1.0451263477        5.5487586448
 C        -5.5466340954        2.0148085451       -0.6400665838
 C        -6.9510291793        3.5871304856        0.8111642167
 C        -8.4190283476        0.4626390928       -6.3035874139
 C       -10.2185218939        2.1931614750       -6.6107293257
 H       -10.3914690177       -1.2365999165       -4.8960981458
 H       -11.6179712570       -0.2590794440       -5.6947365424
 H       -11.5311835539       -0.4548634976       -3.9336945937
 H        -6.5043377004        2.9538998760       -3.8353070485
 H        -6.4898599527        1.3507482129       -4.4053394753
 H        -7.1998087860        0.6223867831       -2.4038797070
 H        -8.7777084589        1.2113586302       -2.7778799794
 H        -9.2313841151        1.9733406943        1.6890562956
 H        -8.0310186985        1.1129049292        2.6517157358
 H        -8.9527198838       -1.0146466110        1.4333263834
 H       -10.5193500715       -0.1298105296        1.5179754287
 H        -8.7935560227        1.4390248514        5.5146855323
 H       -10.0863835300        1.0339159703        6.6160395767
 H        -9.7613726364        3.1180253770        7.3813276893
 H       -10.9518724224        3.5088335631        6.0462882284
 H        -8.5374755929        5.6393506233        3.5159668055
 H        -9.5155318847        7.1604751108        3.4274208318
 H       -11.6345679752        5.7968935419        3.8218193776
 H       -10.9125368416        4.2549205361        3.4681659583
 H       -10.1432419493        6.0543091565       -1.5148074910
 H       -10.7660907717        7.2645575188       -0.3743877971
 H       -11.8399614181        8.2464488279       -2.1469613020
 H       -12.9125907932        6.9249445923       -2.3138676236
 H       -14.2435965744        5.3039187860       -6.7781529832
 H       -14.7412063071        6.1790689048       -5.3358769725
 H       -14.8270106571        4.4051833751       -5.4778846599
 H       -13.7849039159        7.7785286875       -4.0203065765
 H       -13.7368829956        7.8840139744       -5.8433319639
 H       -12.5362813637        8.7621607567       -4.8947013691
 H       -10.3600660911        6.4236990092       -6.1438920434
 H       -11.0199453843        7.9088970265       -6.5044325456
 H       -12.0176029847        6.4955966233       -7.1375232154
 H       -12.0986251609        3.3934243244        1.4421181503
 H       -13.6959582683        3.7737970329        0.9172031323
 H       -13.1422023981        4.4265442320        2.4844682977
 H       -12.6593110326        7.6202696020        0.7031248551
 H       -13.1866196057        7.0740728735        2.1493012696
 H       -14.0875566769        6.4349512646        0.8168126217
 H        -9.2075586548        6.4671809584        8.1150296148
 H        -8.5332331626        4.9126826475        8.4521506234
 H       -10.2313778365        5.0770550648        7.8971831228
 H        -6.7823630828        5.5632325755        5.2448432986
 H        -6.5737533585        5.8751003165        6.8497518538
 H        -7.3741670315        7.0371381133        6.0194337661
 H       -12.2019235479       -1.4593064017        3.0432293604
 H       -12.3128104739        0.2655463273        2.5330670947
 H       -12.9715909229       -0.3838043343        4.0638571737
 H       -11.7057438161       -1.9391757888        5.3699042856
 H       -11.4661950203       -0.4668541708        6.3634976529
 H       -10.0772350370       -1.3458620344        5.9787241865
 H        -5.0356594994        2.9144455180       -1.0338205159
 H        -5.5274245951        1.3679322606       -1.4955967018
 H        -5.0512318047        1.6244480733        0.2312781598
 H        -6.4945853751        4.3213061407        0.2328555165
 H        -6.1830780273        3.3708412594        1.5975725089
 H        -7.8614634193        3.9847104925        1.1276498882
 H        -7.9964548606       -0.1808747882       -5.5629644330
 H        -7.6162127141        0.9615054248       -6.8077839225
 H        -8.9317941619       -0.1211210758       -7.0518886366
 H       -10.1524495340        1.7545550065       -7.5709877996
 H       -10.0300239702        3.2353309278       -6.6733289550
 H       -11.2830925375        2.1604348360       -6.2665184055
 Na      -10.5969887827        4.0156453724       -3.0928136626
