117

 C       -11.2009996776       -0.3505702159       -4.7213308263
 C       -10.3539606864        0.8943637323       -4.4866712238
 O       -10.6609519895        1.6364142551       -3.6240282254
 C        -9.2949033142        1.4467747547       -5.6275811461
 C        -8.3776769628        2.6114785069       -4.9528490770
 O        -8.5188463722        3.8057709599       -5.2200330046
 C        -7.3002615182        2.1079336688       -4.0312849842
 C        -7.7681919386        1.5878630373       -2.6215105979
 C        -7.9321878667        2.5704801813       -1.4782852739
 O        -8.5900782050        3.5749964200       -1.4509643042
 C        -7.0487405369        2.2737903123       -0.1608711057
 C        -7.7348997936        0.9851911944        0.4783055684
 O        -7.4857853796       -0.0930991659       -0.0165539658
 C        -8.6269178654        1.1352829992        1.7619244117
 C        -9.2779557123       -0.1812598721        2.0155705106
 C        -9.5687006511       -0.6674683125        3.4874801623
 O        -8.7505675053       -1.3106423988        4.0828006711
 C       -10.9317419049       -0.2263327297        4.2329726413
 C       -10.7085258081        1.3460830532        4.5641502239
 O       -11.3211003041        2.1956638203        3.9141177849
 C        -9.7521591327        1.6706443895        5.7126808254
 C        -9.9194755481        3.0411431878        6.2577201739
 C        -8.8255787299        3.9971037513        5.6714616864
 O        -8.1254360150        3.5847120024        4.7363109601
 C        -8.7892308214        5.4497575587        6.1714491383
 C        -9.8242044069        6.3440046394        5.4048987841
 O       -10.5652396860        7.1379151163        5.8915842765
 C        -9.6908903938        6.2545998208        3.8829462715
 C       -10.8337737681        5.5056712901        3.1874774916
 C       -10.7622101063        5.6786723126        1.7344155824
 O        -9.7375148014        5.9621323909        1.1702766268
 C       -12.1743398325        5.4592080068        0.9888079662
 C       -11.7860690359        5.3603073591       -0.5471362815
 O       -12.0090393262        4.2605941527       -1.1447158245
 C       -11.1304586367        6.6372326519       -1.1999225890
 C       -11.8779501150        7.1954224358       -2.3527172481
 C       -11.2486093240        6.7933301172       -3.6906484319
 O       -10.0948538856        6.3730058861       -3.7280524937
 C       -12.1804642002        6.7496238678       -4.9979758993
 C       -12.8725282587        5.3358904225       -4.9762844927
 O       -12.3452947705        4.2874800651       -4.6812838819
 C       -14.2598987244        5.1752992616       -5.6355867094
 C       -13.3462588231        7.8691572319       -4.9621430568
 C       -11.3889702848        6.7973183945       -6.2808449596
 C       -12.8648286476        4.1658985087        1.5547135441
 C       -13.1070217902        6.6744538828        1.2480180723
 C        -9.0345014845        5.5854638927        7.6932246181
 C        -7.3658443481        5.9578673481        5.8693738345
 C       -12.1861443068       -0.3513058441        3.3036027065
 C       -11.0544125277       -1.0251470834        5.5523547773
 C        -5.6018134510        1.9483826736       -0.6316771260
 C        -7.2009431554        3.4678696079        0.6946542591
 C        -8.4034535882        0.3385123137       -6.3227611805
 C       -10.1266728569        2.2119837679       -6.7095772754
 H       -10.6199940907       -1.2715338208       -4.8116834229
 H       -11.7342700580       -0.2708790403       -5.6413942959
 H       -11.8011252395       -0.5029637278       -3.7925420243
 H        -6.5187069870        2.9036608415       -3.9905593506
 H        -6.6796888209        1.2671577292       -4.4309348384
 H        -7.0223972473        0.7999765319       -2.3724958744
 H        -8.7435760951        1.0530105539       -2.6824756974
 H        -9.4364720453        1.9419713978        1.6313743993
 H        -7.9575465407        1.3739748369        2.5812400327
 H        -8.7040317678       -0.9185465756        1.4550249177
 H       -10.3288344032       -0.0898996464        1.5911589695
 H        -8.6891069731        1.4282574752        5.4505148275
 H       -10.0609943821        0.9412617622        6.5206218271
 H        -9.8652051423        3.0896132488        7.3745617244
 H       -10.9407980174        3.3002439345        5.9279866629
 H        -8.8156921482        5.6068024150        3.6289289642
 H        -9.5488808128        7.2567542822        3.4590994167
 H       -11.8294999802        5.6844844966        3.6384567747
 H       -10.7618742778        4.4546549713        3.3357963064
 H       -10.1495404158        6.2734107410       -1.4985639099
 H       -10.8812838943        7.3959432824       -0.3572365153
 H       -11.8874160101        8.2751438464       -2.2706816909
 H       -12.9208191665        6.9290441604       -2.3585184408
 H       -14.0352297193        5.0810222285       -6.7226503296
 H       -14.9113068964        6.0050915762       -5.5024658505
 H       -14.6913408756        4.2902809952       -5.4404885279
 H       -13.9781010209        7.5127343804       -4.1678782986
 H       -13.8504292809        7.8399368327       -5.9163057906
 H       -12.8956915905        8.8685092069       -4.7719734806
 H       -10.5400404264        6.1107510078       -6.1684934809
 H       -10.8244587846        7.7438305013       -6.2615348297
 H       -12.0294538248        6.7484648733       -7.1374351133
 H       -12.2097601826        3.3125960747        1.5930201557
 H       -13.6268363473        3.9210839491        0.9090129880
 H       -13.2410656491        4.5409210091        2.4653756020
 H       -12.6710210596        7.5928253284        0.9399927997
 H       -13.2236623290        6.8742980585        2.2615298851
 H       -14.1176125512        6.4177111995        0.8528498767
 H        -8.9239357441        6.6224940960        8.0661714252
 H        -8.3348096706        5.0276310273        8.3083987260
 H       -10.0483022637        5.3515780252        7.9554315078
 H        -6.8447169993        5.4824554222        5.0224709515
 H        -6.6042876490        5.8840838170        6.6583786379
 H        -7.4230076590        7.0542981358        5.7273306750
 H       -12.1461306289       -1.2494624337        2.7291161245
 H       -12.1415636615        0.4355569810        2.6346793528
 H       -13.0412183995       -0.3855885913        3.9643517540
 H       -11.8794710089       -1.7385083068        5.4352520200
 H       -11.2421496865       -0.4149859928        6.5134131131
 H       -10.1335211229       -1.5680258752        5.8339630500
 H        -5.1741484537        2.8622942823       -1.1025823237
 H        -5.5770638220        1.2633768987       -1.4668703594
 H        -5.0331174066        1.6616792770        0.2026645981
 H        -6.8583560269        4.3597748700        0.1760729537
 H        -6.6255598845        3.3383767880        1.5713286519
 H        -8.2800004240        3.6242293326        0.8974055516
 H        -7.9172260734       -0.3187459390       -5.6091568388
 H        -7.7651496076        0.6896479810       -7.0563371560
 H        -9.1328579159       -0.3022689980       -6.8535043579
 H        -9.9132106815        1.7971544810       -7.7585069360
 H       -10.0163665534        3.2741765738       -6.7063605231
 H       -11.2501331971        2.0624584083       -6.4735178592
 Na      -10.6055334469        3.9539521955       -3.1158861191
