117

 C       -10.9448514124        7.6731052140        0.3492326623
 C       -11.4165776574        6.6066434882        1.3666156801
 O       -11.5848949520        5.4802261524        1.0707128210
 C       -11.7453236619        7.2257901761        2.8540989224
 C       -12.1958767248        6.1562715660        3.7729860347
 O       -11.4414356762        5.1969263249        3.9216431439
 C       -13.5656625453        6.1567502490        4.4448534569
 C       -13.8918094098        4.7392305044        4.8212574874
 C       -14.3324118026        3.9630469723        3.6377947361
 O       -13.9221611292        4.2514099620        2.5346986123
 C       -15.3710165815        2.7023212930        3.7500899028
 C       -14.3777588044        1.4196887295        3.4788551240
 O       -13.2094424322        1.6256707747        3.5643980421
 C       -14.7943676086        0.0216906641        3.0608192820
 C       -13.4400771609       -0.6655391726        2.6543473339
 C       -12.7787719814       -0.1082274042        1.4183477202
 O       -12.6540815230        1.0907352577        1.2940990467
 C       -12.3114134605       -0.9642921128        0.0596701997
 C       -10.8130607871       -1.4617305051        0.0124604110
 O       -10.5967676522       -2.6561115137       -0.1135615214
 C        -9.5424846726       -0.5065107245        0.2282776334
 C        -9.1250248940       -0.5070925625        1.7471683009
 C        -9.2386297499        0.9073488346        2.3358492481
 O       -10.3073130168        1.2622906347        2.7783107515
 C        -8.1656219178        1.9969960197        2.0441413315
 C        -8.6485118318        2.6357748474        0.6279815483
 O        -9.8257269365        2.7872297161        0.3051743203
 C        -7.6705082047        3.5550332254       -0.2226736425
 C        -7.3253645510        2.8262996066       -1.6026672068
 C        -5.7161916898        2.5365125882       -1.5966414709
 O        -5.1081026693        2.3121824341       -0.5817993480
 C        -5.1832376420        2.4390851073       -3.1015949747
 C        -5.3221518248        4.0081542464       -3.6493963741
 O        -5.1317402372        4.9227885579       -2.8342024094
 C        -5.2950467224        4.2669451392       -5.2093413248
 C        -5.4703484911        5.7213415589       -5.6843424298
 C        -6.6506795073        6.0540413579       -6.6349233842
 O        -7.5564579018        5.2160885795       -6.8769731027
 C        -6.8017916332        7.4414097688       -7.3415822402
 C        -5.4668497707        8.2983628895       -7.4903391085
 O        -4.5296500073        8.1410005839       -6.8037137946
 C        -5.4485420914        9.2512325952       -8.6708543208
 C        -7.3995344501        7.1618193291       -8.7771696041
 C        -7.8008422353        8.2447701493       -6.4296318439
 C        -3.6304043198        2.0014586278       -3.0723250960
 C        -5.9339188752        1.4991607952       -4.0339794311
 C        -8.3121623766        3.1388416583        3.0529929467
 C        -6.7617336863        1.3140963867        2.0168954559
 C       -13.3879551871       -2.1194547215       -0.2348561591
 C       -12.5143649370        0.0172513899       -1.1435950116
 C       -16.0976181213        2.3944451199        5.0961899271
 C       -16.3986751582        2.9122424115        2.5895879672
 C       -10.1575090359        7.7064828103        3.3517548998
 C       -12.6631855847        8.4353722290        2.8144571877
 H       -10.5840533305        7.0654114234       -0.5350073686
 H       -10.1756753848        8.3349541765        0.7202475240
 H       -11.8436531188        8.2356105590        0.0232596873
 H       -14.4392576914        6.5009116816        3.7975508665
 H       -13.3519013360        6.7506477765        5.3786533059
 H       -14.9125480587        4.8326640724        5.3537304303
 H       -13.1822514432        4.2046152105        5.3347717426
 H       -15.5504692509        0.1253579990        2.2359312360
 H       -15.2722252468       -0.5689387091        3.8769407870
 H       -13.4869415355       -1.7548755664        2.6415757881
 H       -12.6727220918       -0.5555202272        3.4614770596
 H        -9.8214896399        0.4700389986       -0.0165254113
 H        -8.7078039317       -0.9603987844       -0.3112621246
 H        -8.1277771504       -0.9270909186        1.9840274538
 H        -9.7867831842       -1.1442894664        2.3623026120
 H        -6.7826287645        4.0399171269        0.2768045420
 H        -8.3252314869        4.4932391578       -0.3749773379
 H        -7.3145674864        3.5804587912       -2.4216294236
 H        -7.6642754195        1.8065459743       -1.6656988605
 H        -5.8719414411        3.6409133685       -5.8940020600
 H        -4.2146542687        4.0881345100       -5.3467439950
 H        -4.6451910272        6.1978855485       -6.2239316892
 H        -5.4759891853        6.3193339080       -4.8036254536
 H        -4.8818064484        8.6982850332       -9.4276891999
 H        -4.8775508912       10.0506698979       -8.4757608576
 H        -6.4549903624        9.6078873049       -8.9929024515
 H        -7.2795647375        7.8543886388       -9.6108368297
 H        -8.4957990581        6.9461054124       -8.7812859085
 H        -6.9941694151        6.2262629912       -9.1639383379
 H        -7.2852001386        8.5551491926       -5.5135762440
 H        -8.6712332504        7.5207250727       -6.1763565746
 H        -8.0472815435        9.1891309574       -6.9308106356
 H        -3.0995925253        2.2183237686       -4.0578826559
 H        -3.8985251218        0.9747973539       -3.0462615080
 H        -2.9424228922        2.0354500848       -2.2052878935
 H        -6.9673382920        1.4171041980       -3.7675156809
 H        -5.6795573678        0.4419513242       -4.1846718238
 H        -5.8509782000        1.9987834805       -5.0385365339
 H        -7.6450907511        3.9172839077        2.5118023676
 H        -7.6371983842        2.9951408410        3.9161680108
 H        -9.3386370813        3.5242296996        3.1916300198
 H        -5.9776708753        1.9579367054        1.6116033959
 H        -6.8202945534        0.3700215532        1.5430151899
 H        -6.4095640973        1.0642276934        3.0246143481
 H       -14.3351599200       -1.6748968099       -0.4363094471
 H       -13.3970837053       -2.8827638569        0.5395113581
 H       -13.1945459633       -2.6584999336       -1.1470641549
 H       -11.6470804364        0.5094712021       -1.5458481159
 H       -13.0062175963        0.9099689407       -0.7829996066
 H       -13.0482319792       -0.5972221722       -1.8594864654
 H       -17.0307312693        1.9387419879        4.9023240444
 H       -16.1835886502        3.3323574717        5.5520030388
 H       -15.4830771459        1.7950036318        5.7452217784
 H       -17.2204833174        3.6713962733        2.8766152883
 H       -17.0338875914        2.0163647137        2.4581043314
 H       -16.0246237440        3.2932747858        1.6747332807
 H        -9.8331139245        8.6992193650        3.1309735809
 H        -9.4674723336        7.1038067535        2.7843681026
 H        -9.8928384800        7.4077538111        4.3728976523
 H       -13.0103087813        8.6870243555        3.8328031500
 H       -13.5459788357        8.3439673927        2.2235813701
 H       -12.1873077927        9.3447688481        2.4841943198
 Na      -11.9112885448        3.1190720977        2.1458083796
