117

 C       -11.4521724515       -0.5264378209       -5.0078450372
 C       -10.7540724208        0.7673527515       -4.6539318557
 O       -11.1467573443        1.4697435995       -3.7919717459
 C        -9.5140281053        1.1754292234       -5.5714099485
 C        -8.6843536992        2.2421038920       -4.7992302649
 O        -8.9631813877        3.4619933480       -4.8708386982
 C        -7.2827406120        1.8522207515       -4.1381126841
 C        -7.3384838869        1.4174587919       -2.7137569614
 C        -7.7645180182        2.4614429388       -1.7117630659
 O        -8.5823014718        3.3035622692       -2.0068962185
 C        -7.4347198865        2.3094167570       -0.2068222647
 C        -7.9334280319        0.8017892488        0.4189677800
 O        -7.9114560645       -0.1004698327       -0.3836042012
 C        -8.2083768078        0.6878227902        1.9025570710
 C        -8.4713842833       -0.6791923178        2.6097580229
 C        -9.0309428602       -0.3477078290        4.0005125787
 O        -8.3533987985       -0.4006605521        5.0441368655
 C       -10.4924082701        0.1777496372        4.1172030974
 C       -10.4437562104        1.7300084855        4.5364120386
 O       -11.0656763397        2.6472835335        3.9725610441
 C        -9.5201637639        2.0077118181        5.7052160196
 C        -9.6784146091        3.4529938708        6.2291969857
 C        -8.6903071400        4.3586047792        5.5281305669
 O        -8.0998235350        3.9427633548        4.5114629655
 C        -8.5850141161        5.8665635490        6.0488403067
 C       -10.0630901240        6.3841750614        5.6345412938
 O       -10.8919992189        6.5356363058        6.4865154402
 C       -10.2135470716        6.6484822385        4.1558424664
 C       -11.1885640920        5.6726995079        3.4298965144
 C       -10.8933171830        5.7636461216        1.9845316325
 O        -9.7374730349        5.9294682514        1.6156317016
 C       -11.9886676438        5.3906422912        0.8897241163
 C       -11.4879992785        5.5753055439       -0.5307694935
 O       -11.2787053756        4.5473958531       -1.2554895656
 C       -11.1463787839        6.9434584989       -1.1497750742
 C       -12.0250854972        7.2175634243       -2.3565302382
 C       -11.4973108971        6.5717888136       -3.6055898709
 O       -10.2919110834        6.3594538769       -3.6936010090
 C       -12.3979953973        6.3968996796       -4.9322232516
 C       -12.9603509070        5.0016447232       -5.1400267735
 O       -12.2733383488        4.0596949517       -4.8580045224
 C       -14.2718318612        4.8006886566       -5.9783647520
 C       -13.5248657527        7.4780517196       -5.0502384869
 C       -11.4749367784        6.6039278921       -6.2229804549
 C       -12.4245572765        3.8577624774        1.1095828095
 C       -13.1812381720        6.3491566609        1.1713205756
 C        -8.4073588743        5.7747015234        7.5557165312
 C        -7.4868809184        6.6657394570        5.3554377347
 C       -11.3834361888        0.0023663009        2.7972832761
 C       -11.1491194838       -0.5943523457        5.3102777003
 C        -5.8736995705        2.1868834723        0.0032161458
 C        -8.1136292245        3.4342740606        0.6381500859
 C        -8.6290799900       -0.0839065644       -5.9181973831
 C       -10.0064905244        1.8581828143       -6.8987195835
 H       -11.6452335028       -1.1326007177       -4.1333601556
 H       -10.9420239451       -1.1277110437       -5.6839216010
 H       -12.4309946630       -0.3344475895       -5.6456115782
 H        -6.6887029927        2.7306810499       -4.1871092219
 H        -6.9010203828        1.0393769127       -4.7220323310
 H        -6.3788003449        1.0273691401       -2.4448453852
 H        -8.0804609467        0.6281872292       -2.5975711487
 H        -9.1393863416        1.3049748043        1.9401402248
 H        -7.4755743506        1.2598166538        2.4401805034
 H        -7.6047348455       -1.2522727052        2.6017025205
 H        -9.1871363871       -1.3790910441        2.0884104898
 H        -8.5128348620        1.7398811187        5.4013838985
 H        -9.8052924885        1.4118232476        6.5020882162
 H        -9.6501129503        3.5300294280        7.3245268756
 H       -10.6475499930        3.8561560229        6.0311978058
 H        -9.2392048338        6.6012115845        3.6862114180
 H       -10.5584123395        7.6315131834        3.9709385353
 H       -12.2534885556        5.9559544339        3.5973885886
 H       -11.0040306279        4.6941194821        3.8120041407
 H       -10.1511845884        7.0250123421       -1.4229375444
 H       -11.3535290920        7.6811688426       -0.3351410993
 H       -11.9682612560        8.3440380180       -2.5037126834
 H       -13.1280678056        6.9988957126       -2.2392393432
 H       -14.2368486378        5.4313503351       -6.9410112815
 H       -15.1377551489        5.1440050198       -5.3494191828
 H       -14.5394620398        3.7750914308       -6.1357407561
 H       -14.3303092854        7.2659651655       -4.3407662188
 H       -13.9032277492        7.6035540656       -6.0435153883
 H       -12.9971823581        8.4077504318       -4.6928777995
 H       -10.7497897764        5.8320979011       -6.2547714154
 H       -11.1626082815        7.6261088013       -6.2180759202
 H       -12.0209603221        6.3909435752       -7.0772641214
 H       -11.4540577636        3.3221145101        1.2141427784
 H       -13.1851789973        3.5767946407        0.4125682517
 H       -12.8617000107        3.8135853388        2.1265006261
 H       -12.8046109049        7.3517210168        1.0273800834
 H       -13.6092250220        6.1268195691        2.0841983866
 H       -13.9786558080        6.3054787761        0.3640231203
 H        -7.8180380871        6.6837696792        7.8371051445
 H        -7.8565579186        4.9046773586        7.8826351112
 H        -9.3577533699        5.7366572978        8.0427029633
 H        -7.3436192165        6.6019984791        4.2747763088
 H        -6.5902857166        6.4182079273        5.9474724314
 H        -7.6621013108        7.7468057093        5.3487364079
 H       -11.3089647305       -1.0552910134        2.4331205626
 H       -11.0696049713        0.7714323445        2.0866697183
 H       -12.4247007943        0.3452055056        3.0290954871
 H       -11.5951636760       -1.5031909229        5.0301194627
 H       -11.9797992801       -0.0240554713        5.7995960570
 H       -10.4033487146       -0.8826996956        6.0218461318
 H        -5.3618554338        3.1829158871        0.0886837529
 H        -5.4932353618        1.5543551110       -0.7871312132
 H        -5.6075870521        1.6028589598        0.8463667485
 H        -7.8375971097        4.4069641271        0.1580956805
 H        -7.8663788366        3.4077282517        1.6813370534
 H        -9.2622023456        3.3618467983        0.6258127907
 H        -8.1161121695       -0.5363678996       -5.0225869326
 H        -7.8842105848        0.1191676408       -6.6667393739
 H        -9.2820005719       -0.9080299510       -6.3540645315
 H        -9.1617369633        2.0491378804       -7.5765692812
 H       -10.3971075333        2.8217684264       -6.6982966217
 H       -10.7289190974        1.2567008470       -7.4545190056
 Na      -10.7212592772        3.8179679475       -3.2570948180
