117

 C       -11.8602054247       -1.0068232970       -3.9476494057
 C       -10.9927556939        0.2545342880       -4.0450230007
 O       -11.3489417836        1.2721435928       -3.4046941635
 C        -9.6053917118        0.2363838032       -4.9115326023
 C        -8.8631640590        1.5898031863       -4.7426190226
 O        -9.4236952599        2.5352571107       -5.2705859705
 C        -7.7646675128        1.9296249456       -3.7598771210
 C        -8.2371246960        1.4753315114       -2.3129618762
 C        -8.2076420242        2.6964638431       -1.3005612238
 O        -8.9244817030        3.6875109291       -1.5431566608
 C        -7.3995355272        2.7563821165       -0.0136104624
 C        -7.9903583631        1.6611864190        0.9539451504
 O        -8.9267438953        0.9399382658        0.7116369905
 C        -7.4950637860        1.5850511751        2.3849923705
 C        -7.5364082845        0.1319413212        2.8256224765
 C        -8.1934365775       -0.0142241364        4.2334775160
 O        -7.5531751618       -0.4944115142        5.1837247896
 C        -9.6843531420        0.4066136982        4.4247960311
 C        -9.6278523243        1.9486294653        4.7815653268
 O       -10.2163723141        2.8262569603        4.0909067217
 C        -8.7818389938        2.3087548295        5.9961231050
 C        -8.8653499999        3.7609119393        6.4079736711
 C        -8.2715778277        4.6569014607        5.2808296843
 O        -7.5312333870        4.1145224801        4.4465933417
 C        -8.5088294598        6.2619128472        5.2497962604
 C       -10.0847417312        6.4003320913        5.0723686279
 O       -10.8126986213        5.8782111266        5.8831110952
 C       -10.7339686113        7.0015932729        3.8470143504
 C       -10.9457399932        5.7835449595        2.8992887952
 C       -11.6191301116        6.1713958926        1.5742741775
 O       -11.7618834317        7.3345646690        1.2534288782
 C       -12.2495546531        5.1134682461        0.6237316956
 C       -11.8074179028        5.3514087444       -0.8686231839
 O       -11.6869431504        4.3826357851       -1.6228372398
 C       -11.6544104422        6.7775547701       -1.4555938500
 C       -12.4314687500        6.9415880737       -2.7603322896
 C       -11.7214429057        6.2663416062       -3.8881829014
 O       -10.5321832270        6.0143347941       -3.8422195749
 C       -12.5302603412        6.1902018720       -5.2339428391
 C       -13.1130589001        4.7575267539       -5.3993187232
 O       -12.4964123163        3.8152514238       -4.9942275315
 C       -14.4966264533        4.6013973115       -6.0016940984
 C       -13.5290965634        7.3661902601       -5.4470958291
 C       -11.4702344677        6.2764182383       -6.3561473812
 C       -11.9008920233        3.6460335289        1.1264184039
 C       -13.8631168910        5.3006499120        0.6435067892
 C        -8.0947926949        6.8688534456        6.6484044672
 C        -7.6358631003        6.8739865163        4.1469575230
 C       -10.5123896493        0.0622635816        3.2152832102
 C       -10.2840776140       -0.3802611584        5.6240585693
 C        -5.8891499672        2.4250094071       -0.3654506414
 C        -7.4854501074        4.1354509823        0.6594267348
 C        -8.7593359043       -1.0332274912       -4.5183120727
 C       -10.0346070843        0.1751387830       -6.4250271976
 H       -12.8445706389       -0.8737294003       -3.5517191822
 H       -11.3707401043       -1.6780198111       -3.3628454459
 H       -12.0881895887       -1.5668889544       -4.9289485145
 H        -7.6610293415        3.0336193851       -3.6728885329
 H        -6.8293574156        1.4583247940       -4.1156530698
 H        -7.4576520862        0.8259779327       -1.8749615920
 H        -9.2009681872        0.9815083104       -2.2441327400
 H        -8.2468593725        2.1629975592        2.9181174478
 H        -6.5177647276        2.0285121992        2.5646057462
 H        -6.5669234308       -0.4247403949        2.7574515957
 H        -8.2250365865       -0.3614494969        2.1727574612
 H        -7.7118290031        2.1357816040        5.7236489463
 H        -8.8827204287        1.6569394140        6.8226543944
 H        -8.1783118919        3.9943125339        7.2501311865
 H        -9.9287195568        4.0348407325        6.5640880421
 H       -10.1994755453        7.8625312672        3.3505893478
 H       -11.7449423022        7.4616007663        4.0867883616
 H       -11.5745575821        4.9848669198        3.3261597696
 H       -10.0144977883        5.2194369410        2.6363752832
 H       -10.5914114872        7.0935400370       -1.6090922935
 H       -12.0685782409        7.4612739721       -0.7135710277
 H       -12.5042156080        7.9891119277       -3.0550462332
 H       -13.4665346751        6.6522497815       -2.7600672321
 H       -14.6294074921        5.1863743866       -6.8737370340
 H       -15.2264612040        4.8550945922       -5.3132298573
 H       -14.6856670721        3.5409147905       -6.3423473397
 H       -14.5725830353        7.3055209256       -5.1630115057
 H       -13.4911839605        7.7786228274       -6.4195486475
 H       -13.2659370506        8.2477728634       -4.8617645259
 H       -10.9262341711        5.3648756111       -6.3505024525
 H       -10.8509746334        7.1046859289       -6.0828854516
 H       -11.8627770636        6.3641181246       -7.3646971992
 H       -10.8114391573        3.5282231958        1.2808746509
 H       -12.4286978086        2.8159521566        0.5983249929
 H       -12.3229829227        3.4423220120        2.1084967886
 H       -14.0128842032        6.2217809107        0.0175645484
 H       -14.2507316037        5.5385246358        1.6422122219
 H       -14.4178980601        4.5734764125        0.1156872278
 H        -7.8027361453        7.9048967142        6.3951242634
 H        -7.1614380523        6.3446134645        6.9729713583
 H        -8.8551647070        6.7738514778        7.3899056250
 H        -7.9183722638        6.6015893245        3.1442894310
 H        -6.6357668666        6.5732893257        4.4019046535
 H        -7.8143531354        7.9288660891        4.1513893252
 H       -10.5800750461       -1.0728219586        3.1332159981
 H       -10.2608602624        0.5082696424        2.2432483871
 H       -11.5348772866        0.3309194639        3.4011656638
 H       -10.7334754600       -1.3021712145        5.3884604050
 H       -10.9770880831        0.2219743609        6.1617551578
 H        -9.4244267794       -0.6088666047        6.2155675667
 H        -5.4044431690        3.2339647225       -0.8833693402
 H        -5.9010490741        1.4857756214       -0.8587399660
 H        -5.2850019884        2.1179561500        0.4945854366
 H        -6.6163696355        4.7662266850        0.4357116824
 H        -7.6981159379        4.0689891614        1.7139053807
 H        -8.3746484701        4.7003716609        0.3929199736
 H        -8.0566395675       -0.7725613691       -3.7174181257
 H        -8.1017866611       -1.3187069126       -5.3594345512
 H        -9.4420301873       -1.8439018080       -4.2184496635
 H       -10.9425709225       -0.3805025947       -6.5233616096
 H        -9.2364359302       -0.3570477372       -6.9816979365
 H       -10.1241364285        1.1268453873       -6.7918632171
 Na      -10.4519294683        3.5468091355       -3.5858225131
