117

 C       -11.5000572283       -1.0769872326       -4.1308810254
 C       -10.8336544751        0.2719343065       -4.4105614191
 O       -11.3962234458        1.2714395903       -4.0913970246
 C        -9.4497173995        0.2302426638       -5.1491043316
 C        -8.7591534272        1.6184896982       -4.6722872182
 O        -9.1940656320        2.6601123382       -5.0816106183
 C        -7.5881124746        1.5334432603       -3.7192865211
 C        -8.1200793439        1.3115863050       -2.2846480514
 C        -8.1097781509        2.6106478546       -1.4257254625
 O        -8.6253170398        3.6277262144       -1.7825593593
 C        -7.3166213018        2.6168508895       -0.0790561948
 C        -7.7967619232        1.4733908185        0.8319293229
 O        -8.7317607228        0.7618573327        0.5039465549
 C        -7.3359001520        1.3405614972        2.3018434702
 C        -7.6526572869       -0.1232141989        2.7879894988
 C        -8.4731748377       -0.1653341350        4.1670376560
 O        -8.0368940095       -0.6661466912        5.1363725541
 C        -9.9204415187        0.4050367669        4.2591203987
 C        -9.7898572280        1.9362606315        4.6993915712
 O       -10.0523021350        2.8321956507        3.9745426779
 C        -9.0926090290        2.1921249627        6.0143649671
 C        -9.1497147194        3.7010655618        6.3951971722
 C        -8.3133116492        4.5943374248        5.4665800274
 O        -7.4330603254        4.1697859366        4.7977947329
 C        -8.5408408810        6.1203391342        5.6408166641
 C       -10.0635617704        6.4131913677        5.5328958585
 O       -10.7572522409        6.2352061938        6.5238609873
 C       -10.7917640296        6.8306619246        4.1675987977
 C       -10.8968469339        5.6776578913        3.1182428787
 C       -11.4268526539        6.2017306368        1.7644698064
 O       -11.4083616872        7.3923762547        1.5162158949
 C       -12.1876950448        5.1741846165        0.7481440178
 C       -11.6633387894        5.3102869998       -0.7712670416
 O       -11.5058438374        4.3053090655       -1.3673061594
 C       -11.5799207860        6.7487303417       -1.3962702140
 C       -12.4602226739        6.9467312706       -2.7086533901
 C       -11.7435489139        6.4640356463       -4.0271390405
 O       -10.6336694430        5.9870172681       -4.0912037264
 C       -12.6392042793        6.4743178418       -5.4106166014
 C       -13.2869261317        5.0682913114       -5.5025239006
 O       -12.6783171427        4.1326312562       -4.9346890015
 C       -14.7046008496        4.8418557974       -6.0313160935
 C       -13.6034168900        7.6955673015       -5.4967931985
 C       -11.5780012157        6.6294774845       -6.6013597736
 C       -12.1614496951        3.6418035618        1.0218923583
 C       -13.6694736289        5.6107196515        0.8569246289
 C        -8.0602870180        6.3946917295        7.1685175857
 C        -7.6682074261        6.9909156026        4.7025246226
 C       -10.7313477287        0.2915466469        2.9389236181
 C       -10.6835601425       -0.4069923870        5.2864346611
 C        -5.8538555152        2.2159514054       -0.4817310437
 C        -7.5798074729        3.9726265779        0.6657785741
 C        -8.7510351962       -1.1076038540       -4.9369816687
 C        -9.7533815260        0.5802753881       -6.6339525659
 H       -12.5558180850       -1.0300759857       -4.0371171691
 H       -10.9961520816       -1.5336233500       -3.2140304892
 H       -11.4264937555       -1.7626226948       -4.8540946400
 H        -6.9456464515        2.4139235382       -3.9007791654
 H        -6.8673384537        0.7006066752       -3.8899982779
 H        -7.5442844811        0.4889364562       -1.8425976350
 H        -9.1521917521        0.9626930151       -2.3937124063
 H        -7.9996043488        2.0567328679        2.8331850517
 H        -6.3405844556        1.6436943068        2.4871835381
 H        -6.8038452491       -0.7811838187        3.0053429284
 H        -8.3824522164       -0.4963708707        2.1135678691
 H        -8.0686922105        1.8731313116        6.0136936942
 H        -9.5334360603        1.6629862661        6.9636243074
 H        -8.7410992957        3.6973069776        7.4354529732
 H       -10.1843189194        4.0527787225        6.3436151069
 H       -10.2383992138        7.6925347398        3.6692547653
 H       -11.7973012869        7.1301020967        4.5094707125
 H       -11.5838442454        4.8396500626        3.5222291609
 H        -9.9194957923        5.2332378002        2.8816092672
 H       -10.4716218388        6.8717001181       -1.5991405688
 H       -11.8820194335        7.4922877255       -0.6457945524
 H       -12.7014145134        8.0054446653       -2.8103128286
 H       -13.4033257792        6.4635243043       -2.5565456963
 H       -14.8529611232        5.0889980719       -7.0665001911
 H       -15.3328711565        5.5323373369       -5.4788285946
 H       -14.9659044658        3.8415923101       -5.9975567661
 H       -14.5506397219        7.5935255330       -4.9990552518
 H       -13.9954613732        7.8710274810       -6.5257275851
 H       -13.2363206118        8.6311833397       -5.2092939845
 H       -10.6587890401        6.0815297702       -6.4430557293
 H       -11.2414161136        7.6519186736       -6.5756613996
 H       -12.0503531757        6.4917666611       -7.5567719576
 H       -11.2839161305        3.2041537704        0.5425844058
 H       -12.9373796738        3.0702867198        0.4645014098
 H       -12.1766496979        3.3571445069        2.1106167732
 H       -13.8843797437        6.6508502682        0.7731458549
 H       -13.9583364439        5.3179571868        1.8972932353
 H       -14.3109687092        4.9099073180        0.3220567398
 H        -8.4679844359        7.2663775219        7.6002578176
 H        -6.9857718301        6.4301514965        7.0861975521
 H        -8.5700263300        5.6216387605        7.8006275265
 H        -8.0782483673        6.8155251411        3.7124031155
 H        -6.6425015076        6.7006227758        4.6494052897
 H        -7.6917843204        8.0226800882        5.0497943453
 H       -10.7121553627       -0.7332908775        2.6586253932
 H       -10.2731201895        0.8314086559        2.0962731849
 H       -11.7487633838        0.7241668613        3.1025021202
 H       -10.8491733031       -1.3975827857        4.9054835011
 H       -11.6312119085        0.0487727672        5.2679853084
 H       -10.3350004447       -0.3770662787        6.2737044285
 H        -5.5707801394        2.6321918984       -1.4377963909
 H        -5.6587314218        1.1329434413       -0.5822953699
 H        -5.1526774954        2.7040473179        0.2051296375
 H        -7.7816700545        4.8480422254        0.1036443077
 H        -6.7804468722        4.2097050551        1.4121438799
 H        -8.4704811498        3.9207707463        1.2655294818
 H        -8.8810875434       -1.4730247397       -3.9020897372
 H        -7.6637802196       -1.0069688571       -5.2245821146
 H        -9.1560128835       -1.8512437573       -5.6249568182
 H       -10.5609531084        1.2569453326       -6.6289346720
 H       -10.0038516001       -0.2256315493       -7.2485958788
 H        -8.8416990515        1.1013718214       -7.0182711296
 Na      -10.5656342412        3.5443286256       -3.6220882273
