117

 C       -11.6763126526       -1.0528483915       -4.0358775393
 C       -10.9444065995        0.2564114367       -4.1636943446
 O       -11.4006858517        1.2706906372       -3.6805145071
 C        -9.6391405327        0.2173325187       -5.0015326710
 C        -8.9787978812        1.6188403903       -4.7491287602
 O        -9.3177139923        2.5694890840       -5.3928355798
 C        -7.8101342290        1.7855075068       -3.6712195085
 C        -8.1861857376        1.4993741055       -2.1813339128
 C        -8.1910049864        2.7313769358       -1.3187612196
 O        -8.9166612917        3.6589700041       -1.6786840393
 C        -7.3028460719        2.6854315528       -0.0196477098
 C        -7.9057697939        1.7036708211        1.0182501480
 O        -8.8288098070        1.0355326769        0.6309890960
 C        -7.4061919629        1.5719480236        2.5089011571
 C        -7.5402957292        0.0616813447        2.9613992190
 C        -8.2653462820       -0.1112196820        4.2699352866
 O        -7.5837425993       -0.4379653677        5.2269766792
 C        -9.7956729658        0.3451089232        4.3990916105
 C        -9.6914196098        1.9176878355        4.7106800553
 O       -10.1330038131        2.7965088115        4.0052590694
 C        -8.8225227626        2.2462102151        5.9179494158
 C        -8.8443342071        3.6878974245        6.4246468729
 C        -8.2192480020        4.6682380396        5.3888103998
 O        -7.4760651451        4.2502368230        4.5221133897
 C        -8.5019586904        6.2306669091        5.3918953668
 C       -10.0942471128        6.3963056544        5.1751230405
 O       -10.7904439437        5.8906238254        6.0566172681
 C       -10.6465914637        6.9708596215        3.8847674813
 C       -10.9353835329        5.7897434970        2.9525623956
 C       -11.5925395165        6.2181749863        1.6501098639
 O       -11.6214154068        7.4322049780        1.4330724311
 C       -12.2162651604        5.1687435383        0.6245060717
 C       -11.7955180966        5.2987335457       -0.8691591287
 O       -11.6249602630        4.3951347258       -1.6269685483
 C       -11.6937549491        6.7598874235       -1.3190559139
 C       -12.4842046960        6.9385333295       -2.6325245845
 C       -11.6942778220        6.4209246372       -3.9435328264
 O       -10.5370129456        6.0230467275       -3.8812794112
 C       -12.4751743819        6.3071480894       -5.2977970729
 C       -13.2312702850        4.8360196478       -5.3538980852
 O       -12.5144900404        3.8349051656       -5.1399208692
 C       -14.5689345060        4.5917112316       -6.0268452076
 C       -13.4872756992        7.4343483304       -5.4361133269
 C       -11.5487792515        6.2908157115       -6.5045732239
 C       -11.9467009757        3.7009483498        1.1418076685
 C       -13.7579566263        5.2982887027        0.5723168048
 C        -8.1487654741        6.8603659562        6.7162782898
 C        -7.7103766797        6.7796874008        4.2110065901
 C       -10.5739809132       -0.0003019490        3.0958519983
 C       -10.5016808531       -0.3707902274        5.5949674105
 C        -5.8552707491        2.3131152541       -0.2831911337
 C        -7.4635263481        4.1134675579        0.6641385942
 C        -8.7334612633       -0.9852755467       -4.5715379047
 C       -10.0860561294        0.0944419518       -6.5309511190
 H       -12.6045478477       -0.9013134031       -3.5042359106
 H       -11.1025127930       -1.8639339300       -3.5792816174
 H       -12.0782367162       -1.4446295901       -4.9550100273
 H        -7.4645638424        2.8450550354       -3.7141038985
 H        -7.0003267625        1.1183440458       -4.0317477330
 H        -7.5340611788        0.7763124186       -1.7266990899
 H        -9.1822987178        1.1412606490       -2.1017741370
 H        -7.8189886594        2.3543729244        3.1339720470
 H        -6.3791274505        1.7032820606        2.4485487165
 H        -6.5656255552       -0.4513040298        3.0776862105
 H        -8.1082304258       -0.4171267467        2.2243932483
 H        -7.7923850408        1.8884239481        5.8511105989
 H        -9.2144666528        1.6275695759        6.8508601932
 H        -8.1290906130        3.8095026457        7.2604003190
 H        -9.8748087785        3.9466460087        6.6488698900
 H       -10.0188598387        7.7170998284        3.3979721662
 H       -11.5591830422        7.4939235988        4.0714885282
 H       -11.5189194940        4.9316213314        3.4275127271
 H       -10.0321068059        5.2887325012        2.5847562154
 H       -10.5864974484        7.0168510235       -1.6082005447
 H       -11.9751295007        7.4792766299       -0.5198406327
 H       -12.7925463540        7.9924058819       -2.7351112617
 H       -13.4513413815        6.4274487041       -2.6690170115
 H       -14.5951431472        5.1620930949       -7.0026778131
 H       -15.4240442804        4.9560393374       -5.3934567784
 H       -14.7167696450        3.6106697033       -6.3202249693
 H       -14.4794311801        7.2656973155       -5.0261685917
 H       -13.6556875608        7.7403299006       -6.4924110124
 H       -13.2701061206        8.3600432041       -5.0052262023
 H       -10.7562946669        5.5689496987       -6.3508838612
 H       -11.1082781534        7.2608697752       -6.4952962757
 H       -12.0313889495        6.0771148473       -7.4553624066
 H       -10.9461807193        3.6042935527        1.5389808928
 H       -12.1746011282        2.9892359193        0.3000519636
 H       -12.6241430888        3.2648985292        1.8853984214
 H       -14.0675570511        6.2163056136        0.0884456518
 H       -14.1778570867        5.2912172977        1.6190541420
 H       -14.1736612496        4.5017910356        0.0020848501
 H        -7.9604161373        7.8813787665        6.5732480810
 H        -7.2342921386        6.3897556848        7.1048302075
 H        -9.0317475677        6.6972192425        7.3748074530
 H        -7.9681386562        6.3438353087        3.2158311466
 H        -6.6497018623        6.6583743338        4.4713817960
 H        -8.0460169482        7.8351753197        4.1115315825
 H       -10.4725231257       -1.1027474492        2.9284869366
 H       -10.1712315545        0.5417986100        2.1676317881
 H       -11.6707161681        0.1933445896        3.1017565547
 H       -10.7971974846       -1.4343006904        5.4102143680
 H       -11.3924171606        0.1652076653        5.7009227033
 H        -9.9083353137       -0.3629420990        6.5220501001
 H        -5.4068686549        3.1582119264       -0.7278216160
 H        -5.7568052214        1.3830591652       -0.8315671755
 H        -5.2578505229        2.0760905350        0.6203257313
 H        -6.6643555928        4.8407657921        0.4692970018
 H        -7.8259549212        4.1042320670        1.7602062138
 H        -8.3748101723        4.5764810359        0.2972030341
 H        -8.0858755687       -0.7346831665       -3.7396959109
 H        -8.0243743333       -1.2178331355       -5.4236258863
 H        -9.3535551981       -1.8058435899       -4.3402912638
 H       -11.0867543949       -0.1584123359       -6.5863319210
 H        -9.5701563113       -0.6025040882       -7.0299696314
 H        -9.9064984685        1.0789173289       -6.9734425802
 Na      -10.6105396419        3.5756030282       -3.5525273660
