117

 C        -7.7215083552       -5.4961615752        2.6716524043
 C        -6.5781455527       -4.9559630089        3.6493000366
 O        -5.4893618225       -4.7067548436        3.1745875467
 C        -6.8996031497       -5.0545047627        5.1924957645
 C        -6.9962847628       -3.4407197587        5.8047866289
 O        -5.9987578649       -3.0487586829        6.2752101113
 C        -8.2192253042       -2.5914833427        5.3726091870
 C        -7.9417176510       -1.0778466137        5.8135100637
 C        -8.1134151735        0.0042039862        4.7243601544
 O        -8.3445470814       -0.2901732925        3.5971417768
 C        -7.8495779776        1.5166096227        5.2844540388
 C        -7.7664097961        2.4226161891        4.0609657362
 O        -6.7031459790        2.9302083962        3.8111924111
 C        -9.0154685419        2.5129558011        3.1022537491
 C        -8.4776688240        2.7477064830        1.6298754589
 C        -9.4937000780        3.2521143728        0.6158467184
 O        -9.2848627642        4.3798872493        0.1525153616
 C       -10.7148056679        2.3605317271        0.0166127963
 C       -12.0363175467        2.7652194990        0.6522021364
 O       -12.1813790977        3.1875806371        1.7982412202
 C       -13.4057826331        2.6917353344       -0.1604998157
 C       -14.0128216447        4.0906760989        0.1128485130
 C       -13.3291779616        5.1565646293       -0.7527172100
 O       -12.2338312820        5.5380441261       -0.3408629630
 C       -14.1053739967        5.8544825438       -1.9696835415
 C       -13.1740423057        5.7899266642       -3.2807259008
 O       -11.9929562755        5.4825195378       -3.2198473174
 C       -13.7858627246        6.3168338745       -4.6150714361
 C       -12.6436515841        6.9440320654       -5.3884984974
 C       -12.5513070730        8.4830391982       -5.3176198736
 O       -13.3213259968        9.0643506782       -4.5107253180
 C       -11.4514786223        9.1403262203       -6.1597688563
 C       -10.1370032902        9.2405762279       -5.2414266644
 O        -9.1611827995        8.6167597060       -5.5315161752
 C       -10.1567004498       10.0332195228       -3.9661777100
 C        -8.8473835172        9.6304837353       -3.1588152093
 C        -8.9269339953        8.2930604686       -2.4479711038
 O       -10.0616093630        7.9721168858       -2.1388437370
 C        -7.6909464146        7.5577019430       -2.0390615047
 C        -7.6989487323        6.0654686033       -2.6073344255
 O        -8.6338444014        5.3190815872       -2.5283397388
 C        -6.4267584288        5.3710310760       -3.2092085585
 C        -6.4580011719        8.3938233510       -2.3870762601
 C        -7.7186708897        7.1255658952       -0.4643602344
 C       -11.0753752025        8.4570088656       -7.4312656080
 C       -12.0517259902       10.5800356314       -6.4634722449
 C       -15.4298142510        5.1375316586       -2.3231588773
 C       -14.3611221662        7.3690844172       -1.7113721104
 C       -10.6718410147        2.5689472032       -1.5340304965
 C       -10.4085510804        0.8666060708        0.3461490180
 C        -8.9674213119        1.8868714984        6.2716021583
 C        -6.5112458988        1.3759203040        6.0523930620
 C        -8.1909569894       -5.8645921525        5.6100758841
 C        -5.6187472705       -5.6740474907        5.7845705300
 H        -8.1663226776       -6.4506191380        3.0010275227
 H        -7.3201892454       -5.6801460902        1.6455636918
 H        -8.5737056808       -4.8223998088        2.5883278742
 H        -9.1245408208       -2.9625580189        5.9280502859
 H        -8.2980587931       -2.6594878925        4.2378160463
 H        -6.8112216507       -1.0450506996        6.1136721873
 H        -8.4947655041       -0.8036442555        6.6966373579
 H        -9.5972072804        3.4718287817        3.2352651381
 H        -9.7420354726        1.7041385205        3.3050702960
 H        -8.0195831892        1.8499917222        1.3204842008
 H        -7.6838286508        3.4827266900        1.6619700342
 H       -14.0019393436        1.9285200715        0.3514574633
 H       -13.1889304369        2.5149374157       -1.2224230156
 H       -14.0027186363        4.3404096846        1.1857960504
 H       -15.0588969571        4.1639434255       -0.0685008956
 H       -14.4651200468        7.1010810477       -4.4381105481
 H       -14.3001539665        5.4738963501       -5.1540636238
 H       -12.7804840102        6.7224576725       -6.4618787981
 H       -11.5604472456        6.5791788316       -5.1474015847
 H       -11.0074559289        9.7306502002       -3.3285561405
 H       -10.1450766909       11.1100142302       -4.1630185607
 H        -8.8122946905       10.2995249739       -2.2826909830
 H        -7.9230793700        9.9175731890       -3.7298371967
 H        -6.0024068635        6.0732778718       -4.0340730141
 H        -6.7560880285        4.4373820682       -3.6019953682
 H        -5.6339231840        5.3337268741       -2.5385487352
 H        -6.3796878070        9.2443432342       -1.7324634166
 H        -6.4844833103        8.6638609038       -3.4034141910
 H        -5.5793762591        7.7424401774       -2.2720141150
 H        -7.0753021310        7.8257411916        0.0381755772
 H        -7.5852351121        6.1306174754       -0.2018325014
 H        -8.7776790933        7.2139230781        0.0205015073
 H       -10.9577477554        7.3826004485       -7.2731116320
 H       -10.0503073340        8.7506771933       -7.7170620157
 H       -11.7783919172        8.6110752897       -8.3221008278
 H       -11.3483609051       11.0078206732       -7.0797886488
 H       -12.1857539991       11.2164221938       -5.5337548948
 H       -12.9640436664       10.3745239093       -7.0701058854
 H       -16.1022483808        5.1344290782       -1.4783592313
 H       -15.2290396240        4.1038005966       -2.4953941715
 H       -15.9089714888        5.5238008270       -3.2683198931
 H       -15.3492232471        7.5003171413       -1.1771113467
 H       -14.4011298108        8.1028020706       -2.5642492027
 H       -13.5158175407        7.6848490388       -0.9835864569
 H       -11.2680990481        1.8669819841       -2.0194562472
 H        -9.6623586949        2.3774116050       -1.9087874533
 H       -11.0046203647        3.5684898640       -1.8552831484
 H       -10.4462079648        0.6942690430        1.4320671594
 H        -9.3442672421        0.6833256938        0.0544122426
 H       -10.9818240997        0.1160217574       -0.1344944681
 H        -9.0593791892        1.1280223456        7.0417597429
 H        -9.9964896724        2.0530084251        5.8260503859
 H        -8.6669514875        2.7463171274        6.7957517982
 H        -6.5363523718        1.1280771162        7.1184866343
 H        -5.7842027498        2.2610086716        5.9216649113
 H        -5.8636734182        0.6589109987        5.5582614073
 H        -8.9299452699       -5.6182362146        4.8491950816
 H        -8.5621736042       -5.5213081506        6.5477277992
 H        -7.9921491757       -6.9488427665        5.6209064007
 H        -4.8143763282       -4.9113553015        5.6436085749
 H        -5.3566769718       -6.7068415660        5.4093839012
 H        -5.8127693312       -5.8115261362        6.8824089771
 Na      -10.2976100926        5.9545356981       -1.3118195483
