117

 C       -11.3969580950        7.4608500266       -0.1082788175
 C       -11.3098922185        6.5638440622        1.2608070609
 O       -10.8763877192        5.4378183609        1.1774724826
 C       -11.5703901829        7.2894577950        2.6089877790
 C       -12.0400484285        6.0974541676        3.5769963103
 O       -11.3306078027        5.1372157468        3.6051206918
 C       -13.2694699277        6.2361703299        4.5333834015
 C       -13.9702912181        4.8793123077        4.8203143757
 C       -14.5413603103        4.1757906324        3.7042748688
 O       -14.3704732505        4.5192308065        2.5589321238
 C       -15.3035276179        2.7050704763        3.9165096590
 C       -14.1802555185        1.6925553076        3.6527967458
 O       -13.1386517574        1.8161344565        4.1634079381
 C       -14.7341130239        0.4189486405        3.0283746747
 C       -13.6941399081       -0.5635859771        2.5116229302
 C       -12.8584139617        0.0453414550        1.3445119725
 O       -12.6144391135        1.2761739742        1.2722504634
 C       -12.3548174675       -0.8148194696        0.1302786877
 C       -10.9078259440       -1.4546110884        0.0975130968
 O       -10.7718526031       -2.4801565736       -0.5620633752
 C        -9.6791077356       -0.5482823296        0.4150788373
 C        -9.4064861071       -0.2823787201        1.9128461444
 C        -9.5354724488        1.2101602612        2.4029346835
 O       -10.4141082301        1.5119843031        3.2121805132
 C        -8.5234473609        2.3058478988        2.0065222568
 C        -8.8946985249        2.7579180963        0.4393386979
 O        -9.9218900419        2.4412296282       -0.1013441383
 C        -7.7235158905        3.6777581891       -0.2220494012
 C        -7.3711186942        3.4155401849       -1.6732354274
 C        -6.0137410002        2.6489210197       -1.7420643059
 O        -5.4988373379        2.1473691237       -0.7507789653
 C        -5.2322492236        2.5440054777       -3.1414979985
 C        -5.2620598404        3.8120946249       -3.9805738836
 O        -5.4354069438        4.8301614393       -3.3118819516
 C        -4.9099726124        3.7647719280       -5.4422544605
 C        -4.9247071565        5.1625983435       -6.0369256341
 C        -6.2423157843        5.5635368515       -6.5774378585
 O        -7.2723247992        4.9082843115       -6.3051943921
 C        -6.5065501036        6.9104272995       -7.4368721384
 C        -5.3775103307        7.9796381003       -7.3474365508
 O        -4.6427330699        7.9037752177       -6.4125894748
 C        -5.3142028891        9.1715446317       -8.2835312035
 C        -6.8113219051        6.5125446183       -8.8713564567
 C        -7.7411839213        7.6636873923       -6.8665413326
 C        -3.8470265599        2.1304520101       -2.8445279211
 C        -6.0330825930        1.3093571964       -3.9378677242
 C        -8.5537910580        3.4356618197        3.1021358627
 C        -7.0229001896        1.7348763266        1.9461002116
 C       -13.3670044836       -1.9680824986       -0.2872204398
 C       -12.4246646210        0.2433569946       -1.1300148657
 C       -15.7170370414        2.4383700759        5.4667519328
 C       -16.5931448984        2.6851463044        3.0843119521
 C       -10.2379499280        7.9147781870        3.3171757455
 C       -12.7129486444        8.2453295762        2.5405874868
 H       -11.5981643856        6.8172693035       -1.0254840725
 H       -10.3792913503        7.7627621227       -0.2729981340
 H       -12.1330867219        8.3145132515       -0.0076209682
 H       -13.9172059963        6.8648930930        3.9810010819
 H       -13.0682244825        6.5254027234        5.4768777182
 H       -14.8381112448        5.1787911051        5.5400823431
 H       -13.2854870325        4.2347909066        5.3714051269
 H       -15.4657683922        0.6276618422        2.2695160191
 H       -15.3833462451       -0.1371525702        3.7238528076
 H       -14.1525105479       -1.5643878315        2.4095095912
 H       -12.9170187935       -0.8865760911        3.2718228670
 H       -10.0216418641        0.3969775033       -0.0208693182
 H        -8.7598135214       -0.9595761027       -0.0107591970
 H        -8.3635493406       -0.6371788971        2.1565898074
 H        -9.9298583568       -0.9047748446        2.5321169364
 H        -6.7832896293        3.4563285080        0.4242959481
 H        -8.0926488779        4.7156977445       -0.0113496181
 H        -7.0922553453        4.3408367644       -2.2573005864
 H        -8.0234260778        2.5929490571       -1.9992718206
 H        -5.6404037946        3.2203617444       -5.9856205660
 H        -3.8968761842        3.4194401864       -5.6225788607
 H        -4.0342013035        5.2896516155       -6.6944964498
 H        -4.7755261863        5.9485689413       -5.2549607090
 H        -6.3634851235        9.6642373517       -8.4054810152
 H        -5.1807543178        8.8043989524       -9.2474196042
 H        -4.4470742189        9.8167356757       -8.0066150344
 H        -7.8281408319        6.9511844795       -9.0978391999
 H        -6.6956376239        5.4316331866       -9.2621901292
 H        -6.0800345161        7.0079121965       -9.6271715002
 H        -7.5576810116        7.8737365479       -5.8214528327
 H        -8.5460859303        6.9412401540       -6.8756360828
 H        -7.9824041913        8.5437799546       -7.4953094801
 H        -3.3381741111        1.7216929902       -3.6854420586
 H        -3.8092718996        1.5373049943       -1.9541516920
 H        -3.2522558248        3.0720812371       -2.6930360068
 H        -6.7324164297        1.7031451627       -4.6077840696
 H        -6.6832824212        0.6061596152       -3.4009024828
 H        -5.2684943545        0.5902880511       -4.3978732550
 H        -7.6078972167        3.9435753444        3.1699843818
 H        -8.5860398412        2.8420875359        4.0035259151
 H        -9.3155541466        4.1277590728        2.9207837257
 H        -6.2589401732        2.3804236487        2.2837810215
 H        -6.9342008843        1.2856839270        0.9466905463
 H        -6.8959456101        0.7699450279        2.4718061936
 H       -14.4210902840       -1.6979657679        0.0748244631
 H       -13.0687394708       -2.8991474005        0.2511837090
 H       -13.4186797465       -2.1512968719       -1.3750578688
 H       -12.7053329946       -0.2805157816       -2.0540772672
 H       -11.4534616758        0.5111539210       -1.4506341885
 H       -13.1959030850        1.0504403301       -0.9303143203
 H       -16.8267345165        2.6091777568        5.6127485976
 H       -15.0808160263        3.0200597361        6.1868348772
 H       -15.4725803022        1.3602081628        5.6972896448
 H       -17.2322714099        3.5333059158        3.3468506411
 H       -17.2525486319        1.8906906673        3.2292756029
 H       -16.4109164468        2.9814372593        2.0831348722
 H       -10.5363909052        8.0658890131        4.3266121837
 H        -9.7599288008        8.8923398525        3.0712927900
 H        -9.4348935947        7.1436224503        3.2444697700
 H       -12.7821620375        8.9096693912        3.4006551513
 H       -13.6821078365        7.8621271093        2.2917727616
 H       -12.5790849351        9.0141482861        1.7301959915
 Na      -11.6075879372        3.2731408343        2.3263503598
