117

 C       -12.0876980410       -0.7000328769       -3.5316383337
 C       -11.1000353553        0.4237544061       -3.5719614564
 O       -11.1591936012        1.3933630468       -2.8210056538
 C        -9.8793546383        0.2882801609       -4.5823208687
 C        -9.0804580506        1.5836521496       -4.5523597367
 O        -9.4614425179        2.4605051461       -5.3504381514
 C        -7.7652865662        1.7674213766       -3.7793636565
 C        -7.6116662065        1.5738602607       -2.2686654674
 C        -7.9520461049        2.8635665504       -1.4811638834
 O        -8.5651823034        3.8094952864       -2.0165112289
 C        -7.3910568145        2.9573528495       -0.0383457435
 C        -8.0468620184        1.7443449162        0.7270169905
 O        -8.6942876593        0.8978924040        0.1724995698
 C        -7.6639455827        1.5904003279        2.2336157298
 C        -7.6604011600        0.1405900445        2.8445288209
 C        -8.0261184754        0.0033253230        4.2536945706
 O        -7.1094060712       -0.2778493476        5.0697518484
 C        -9.4520861648        0.3246572666        4.9178258275
 C        -9.4675026998        1.8533848264        5.2244482213
 O       -10.3415464115        2.5065295225        4.6511228473
 C        -8.2435607929        2.4341096017        5.9104424755
 C        -8.3052805059        3.8954278179        6.2744180961
 C        -8.2040781787        4.8074313851        5.0099084809
 O        -8.1518461052        4.2829127880        3.9107203052
 C        -8.3480710455        6.3564370149        5.0370317355
 C        -9.8722785485        6.6648725423        4.8723781606
 O       -10.5481214909        6.6424872688        5.8888461907
 C       -10.5640808267        6.9827880941        3.4441918019
 C       -11.0100085950        5.7460471862        2.6384111237
 C       -12.0836356367        6.1101686151        1.5479012956
 O       -12.5215844638        7.2645712632        1.4671371526
 C       -12.6987194660        5.0066211736        0.5292217075
 C       -12.2880429507        5.1971812042       -1.0399744729
 O       -12.3852473752        4.2525450542       -1.7740542682
 C       -11.9159037873        6.5663842204       -1.5222055120
 C       -12.3902956635        6.8661706618       -2.9513003075
 C       -11.4960478442        6.2273418409       -4.0932038419
 O       -10.2861608944        6.2247994662       -4.0270625332
 C       -12.3210670233        5.8546711257       -5.4124158930
 C       -13.0516219030        4.5192348098       -5.3229405895
 O       -12.4733382453        3.5803252470       -4.7375579101
 C       -14.2035427855        4.2621946299       -6.2556870949
 C       -13.3368241738        6.9512452004       -5.7791195748
 C       -11.3100147673        5.6562847540       -6.6239401742
 C       -12.3340863627        3.5840890658        0.9169560501
 C       -14.2177617419        5.1303766285        0.5813960643
 C        -7.8176002320        7.0235853174        6.2920802000
 C        -7.5805991571        6.8384111415        3.7539918755
 C       -10.6552458437        0.0402420652        4.0552179948
 C        -9.5552823894       -0.5262260466        6.1946492875
 C        -5.8771904957        2.8654888867       -0.1128495870
 C        -7.8421372301        4.2157602594        0.6971505582
 C        -8.9670129533       -0.9327268890       -4.1949216916
 C       -10.3568133432        0.1026769592       -6.0806102124
 H       -12.6261604376       -0.7732602175       -4.4721466831
 H       -12.9042980639       -0.5443779323       -2.8936685999
 H       -11.5866067802       -1.6870861591       -3.2492213470
 H        -7.5071888383        2.7874921065       -4.0591461675
 H        -6.9998143881        1.0724769462       -4.1524312798
 H        -6.5860756634        1.2217581207       -2.0124621929
 H        -8.3142777679        0.7496559690       -1.9360480419
 H        -8.3858145700        2.2311907471        2.8247207763
 H        -6.6837367668        2.0986567592        2.3562602657
 H        -6.7303666645       -0.3896529183        2.5996912439
 H        -8.3484586278       -0.5355753790        2.2668087486
 H        -7.4065608163        2.2115351649        5.3734009332
 H        -8.0380760123        1.9299723054        6.8843029880
 H        -7.4924749545        4.2006429480        6.9620211381
 H        -9.2248936360        4.1283102778        6.8050542096
 H        -9.8349493630        7.6772578337        2.9233237349
 H       -11.4106829933        7.6825364771        3.6586221076
 H       -11.5142889700        4.9876340309        3.2751696520
 H       -10.1508469089        5.1916302441        2.2743882944
 H       -10.8624284437        6.6492606447       -1.5785004870
 H       -12.2550728980        7.2922871733       -0.8566106753
 H       -12.2808384432        7.9417090790       -3.0469791630
 H       -13.4171869912        6.5806425975       -3.1336866156
 H       -13.8477936732        3.8791215320       -7.1908107916
 H       -14.6984244593        5.1751969516       -6.5234943111
 H       -14.9729719171        3.7113414824       -5.7795042844
 H       -14.3728206190        6.8691093404       -5.4219776445
 H       -13.4931598316        6.9180464155       -6.8863221731
 H       -12.9470282783        7.9158541544       -5.5653963102
 H       -10.5024774505        4.9766442861       -6.3958583720
 H       -11.0153150967        6.6422307471       -6.9161921730
 H       -11.8536150340        5.2845046113       -7.5056318616
 H       -11.2806866776        3.3589520883        1.1566420021
 H       -12.5510600520        2.9506245464       -0.0022789255
 H       -12.9679541251        3.1945982856        1.7473508425
 H       -14.7300719405        5.9482147793        0.1161402527
 H       -14.5131345726        4.9691715933        1.6585657051
 H       -14.5689131269        4.2380263784        0.0446209309
 H        -7.6437928513        8.0742554063        6.0693533393
 H        -6.9708715304        6.4854135235        6.7716697918
 H        -8.6461889345        6.8651868208        7.0515536349
 H        -7.8917329586        6.3177410746        2.8562212263
 H        -6.5433018139        6.6475324719        3.9406916061
 H        -7.6766906401        7.9203363660        3.6639997829
 H       -10.7318308501       -0.8761632671        3.5164905017
 H       -10.7154459294        0.7927121599        3.2551356701
 H       -11.5575205929        0.1418124228        4.6115196747
 H        -9.0107414291       -1.4556368481        5.9965092191
 H       -10.5406206108       -0.7228154028        6.3836920739
 H        -9.1930306828       -0.0308488778        7.0607324241
 H        -5.5363519669        3.5195856906       -0.8878613404
 H        -5.4985712470        1.8575606621       -0.3763981366
 H        -5.5085651293        3.2309062101        0.8675063060
 H        -7.4371250219        5.1200412675        0.3208886171
 H        -7.5694679023        4.2900099334        1.7933577862
 H        -8.8686136545        4.2707467768        0.4827657088
 H        -8.3319282639       -0.8082096490       -3.3046331382
 H        -8.3898404016       -1.1519507026       -5.1469059385
 H        -9.5531843818       -1.8273520631       -4.0761763007
 H        -9.4925811897        0.3770823786       -6.7523434337
 H       -11.1932487178        0.7839777735       -6.2954551678
 H       -10.5849453401       -0.9694671973       -6.3294348094
 Na      -10.5938915631        3.6332623135       -3.1612730900
