117

 C       -11.2101927063       -0.9829637442       -2.3496683032
 C       -10.7819386502        0.3244263648       -3.0463809547
 O       -11.1750486561        1.4196472602       -2.7494954071
 C        -9.8153188485        0.1842364777       -4.2663564399
 C        -8.9541212359        1.5032376432       -4.3723175924
 O        -9.4671725401        2.4828660020       -4.8316963274
 C        -7.4885329086        1.4635023500       -4.0103521793
 C        -7.1807025733        1.3809922582       -2.5034943629
 C        -7.8477515176        2.5437272572       -1.7346427922
 O        -8.6047549292        3.3012501925       -2.2982009067
 C        -7.5883097696        2.6707030658       -0.2293009224
 C        -8.0298631622        1.3576758458        0.5219235334
 O        -8.2552906383        0.2893123090       -0.0295963897
 C        -8.0986437591        1.4644819542        2.0737906513
 C        -8.3222006552        0.0975316456        2.7067781441
 C        -7.8388750068        0.2368220199        4.2455515236
 O        -6.6520256380        0.2647413827        4.4941650782
 C        -8.8967280982        0.4106396851        5.3506337064
 C        -9.1152646071        1.9545715865        5.4111438840
 O       -10.2021415502        2.3715657628        5.1793848888
 C        -8.0578757921        2.8978149258        5.8944404235
 C        -8.5749434650        4.3661520730        5.9026851705
 C        -8.3975674523        5.0997052948        4.5331784356
 O        -8.3400970557        4.3726478374        3.5302226493
 C        -8.3927097293        6.6036534376        4.3876762414
 C        -9.9119664324        6.9590120598        4.3830480477
 O       -10.4802634927        6.8406696035        5.4160615460
 C       -10.6704589148        7.3232731961        3.1004596057
 C       -11.4255722384        6.0523990659        2.6180958114
 C       -12.3184064326        6.3001811040        1.4193680433
 O       -12.5390534800        7.3839260473        0.9666349091
 C       -13.0390600081        5.0680282031        0.6820490602
 C       -12.4062163931        5.2428991552       -0.7398260393
 O       -11.4733620651        4.4973211282       -1.0213702267
 C       -12.8347311187        6.4474631801       -1.5701984316
 C       -13.1555581068        5.9727629351       -2.9886736515
 C       -11.8961264911        6.0115272249       -3.8996774605
 O       -10.7958979012        6.2556125739       -3.4660406208
 C       -12.1761520066        5.7661873195       -5.4246314378
 C       -12.9705106420        4.4335697058       -5.5272909640
 O       -12.7278302563        3.5410372896       -4.7604015656
 C       -14.0449955577        4.3289087181       -6.5749566472
 C       -12.8688292109        6.9285224238       -6.0414682996
 C       -10.8199546984        5.6236941819       -6.1152956599
 C       -12.8826290628        3.6909276723        1.3351003830
 C       -14.6138850654        5.3687305759        0.6666131985
 C        -7.7883760345        7.3541374563        5.5505973570
 C        -7.6885928097        7.0754209506        3.0799143208
 C       -10.2241445928       -0.1915078943        4.9501676576
 C        -8.4450653853       -0.1284321321        6.7304138274
 C        -6.0012425817        2.6233404947       -0.0148344123
 C        -8.1901422769        3.9840385926        0.3142110043
 C        -8.9055439157       -1.1084276817       -4.1839819312
 C       -10.8312116432        0.0398603168       -5.4431912558
 H       -11.1266371746       -1.7487240175       -3.0546514586
 H       -12.2269804623       -0.8231147136       -1.9636642493
 H       -10.6008917895       -1.2798746943       -1.5060870633
 H        -7.0501563063        2.3932176362       -4.3930521955
 H        -6.8532450676        0.6848218999       -4.4560194471
 H        -6.1196992300        1.5147551681       -2.4031049711
 H        -7.4011356214        0.4422053032       -2.0218516180
 H        -8.9338882852        2.0742804420        2.3445868922
 H        -7.2466744744        1.9574573042        2.4836403480
 H        -7.6676687015       -0.6314497782        2.2441577461
 H        -9.3371373158       -0.1334926399        2.6454703546
 H        -7.2175733229        2.8993620206        5.2814783296
 H        -7.7360648559        2.7052722207        6.9385485096
 H        -7.9986789071        4.9881129290        6.6455700901
 H        -9.6369446268        4.4471900112        6.1591122857
 H        -9.9559448084        7.5659512980        2.2726225222
 H       -11.4215322153        8.1171379596        3.2729725583
 H       -12.1469163402        5.6886514098        3.3726069992
 H       -10.7804794356        5.2784636220        2.2880906466
 H       -12.0127992415        7.2712043515       -1.6280077629
 H       -13.7018626643        6.9175019621       -1.1038878856
 H       -13.8752315737        6.6461704946       -3.4874143363
 H       -13.6032376796        4.9650059475       -3.0216829581
 H       -14.3028091199        3.3157313030       -6.7189428240
 H       -13.7358236308        4.8375485472       -7.4521597136
 H       -14.9865086489        4.8420356966       -6.1486996233
 H       -13.8495519309        7.0118791436       -5.5138735009
 H       -12.9308104710        6.7102912238       -7.1195700157
 H       -12.3451811278        7.8656140970       -5.9239509672
 H       -10.1328179528        4.9367580075       -5.6099650849
 H       -10.2719151367        6.5629000898       -6.1114026693
 H       -11.0920049362        5.3673756866       -7.1839634593
 H       -11.9747132754        3.1204198665        1.1991450732
 H       -13.7817300513        3.1229957282        0.9438521852
 H       -13.0707500686        3.7467826731        2.3835822958
 H       -14.8696024907        6.3225078206        0.2125989021
 H       -15.0713818680        5.4418733317        1.6824455433
 H       -15.0712280976        4.5527561203        0.2053782466
 H        -7.8719566619        8.4163451007        5.4445361352
 H        -6.7154113185        7.2276908890        5.7745087801
 H        -8.4266500865        7.1877676830        6.3614689282
 H        -8.1316648643        6.6050363809        2.1796405787
 H        -6.6710666995        6.6894934155        3.1470018958
 H        -7.7475522271        8.1686013696        2.9657334390
 H       -10.1644575504       -1.3114370936        4.8043543327
 H       -10.6337398977        0.3131224780        4.0518921347
 H       -10.9839741981       -0.0636237063        5.6852932023
 H        -7.8251078268       -1.0476975539        6.5613462594
 H        -9.3361759733       -0.4128977005        7.2969076897
 H        -7.7738779434        0.6014833067        7.2613470276
 H        -5.5345446993        3.0833528828       -0.8660193399
 H        -5.6514130654        1.5761791712        0.1289856007
 H        -5.7415030538        3.2316848055        0.9056976359
 H        -8.1422484803        4.6833193464       -0.5844613360
 H        -7.6337767735        4.3544383769        1.1668976546
 H        -9.2253213502        3.8477125220        0.6717214898
 H        -8.2996944860       -1.2297862086       -3.3211732726
 H        -8.1460607756       -1.0335362236       -4.9745340248
 H        -9.4981224682       -1.9608631434       -4.2894655888
 H       -11.6903912076        0.6441982633       -5.2804695521
 H       -11.1245294924       -0.9699091869       -5.5916421885
 H       -10.3942667269        0.3322690152       -6.3283530007
 Na      -10.8621589502        3.6607523583       -3.3698056315
