117

 C       -11.4083628430        7.2801147512       -0.1340154508
 C       -11.1625313626        6.5614933212        1.1259020951
 O       -10.6873388719        5.4346434173        1.0991443352
 C       -11.6779015068        7.2088479752        2.5781441942
 C       -12.0840690072        6.0689952128        3.5492305966
 O       -11.3249676894        5.0622054091        3.7543110586
 C       -13.2740665161        6.3208515242        4.5150783622
 C       -13.8774184155        4.9350144769        4.9648345531
 C       -14.5397234163        4.2225210905        3.7382672602
 O       -14.5156078303        4.5037406840        2.5395733213
 C       -15.2737933026        2.8269474654        4.1046054164
 C       -14.2113159245        1.7285254939        3.8764344793
 O       -13.0295283649        1.8752469252        4.2325783693
 C       -14.6889773411        0.5731013506        2.9668208313
 C       -13.6219407737       -0.4357698170        2.4827042499
 C       -12.8183776951        0.1104148907        1.2146596249
 O       -12.4912384388        1.2720659374        1.2371217795
 C       -12.5005786692       -0.7011882680       -0.1208054504
 C       -10.9314319520       -1.3309428715       -0.0428558287
 O       -10.6826930468       -2.4188029027       -0.4421588552
 C        -9.7076427766       -0.5491705236        0.5029821843
 C        -9.5664654306       -0.2310809760        2.0329247152
 C        -9.5692992872        1.2751993181        2.3622383316
 O       -10.4488685233        1.5466493864        3.1458788961
 C        -8.5070459800        2.2846562762        1.9024838518
 C        -8.8660005026        2.8021144268        0.5059571222
 O        -9.9512663392        2.5036833893        0.0711753304
 C        -7.8868724761        3.7627462546       -0.1845670241
 C        -7.3516684963        3.5320192777       -1.6890764785
 C        -6.1002785153        2.6160011844       -1.6935064976
 O        -5.7173923514        2.1289808061       -0.6860529973
 C        -5.3136058502        2.4796502326       -3.0381589758
 C        -5.2899964595        3.7887606113       -3.9906355606
 O        -5.4967728902        4.9336447691       -3.5622644301
 C        -4.6478406971        3.6794580849       -5.4329911668
 C        -4.8224616165        5.0651704266       -6.2446207579
 C        -6.2540040076        5.4843102607       -6.5801409747
 O        -7.3137063639        4.9777102126       -6.2362569743
 C        -6.4537997625        6.7973774446       -7.4606514395
 C        -5.2818306561        7.8348176722       -7.2334347493
 O        -4.5987663019        7.8511204770       -6.2399396638
 C        -5.3160261511        9.0383934971       -8.1804381135
 C        -6.5077032370        6.2831551658       -9.0351278525
 C        -7.7560461772        7.3608864853       -6.8348331990
 C        -3.8405638471        2.1220014445       -2.9653370016
 C        -6.0997944846        1.1865770629       -3.8203563274
 C        -8.5258132540        3.5634837115        2.7829377459
 C        -7.1107698628        1.6778183751        2.0211573192
 C       -13.5178342848       -1.8488581630       -0.2557808405
 C       -12.4577434292        0.2216718124       -1.3075867858
 C       -15.7580261980        2.6611418738        5.5927177976
 C       -16.4676335196        2.5316483717        3.2626044831
 C       -10.3942887417        7.8018100818        3.1011885225
 C       -12.7699753427        8.2965699646        2.5389105608
 H       -11.6206197195        6.5938745045       -1.0288205817
 H       -10.4138741467        7.7504240312       -0.4580652956
 H       -12.2149094322        7.9809191229        0.0744901618
 H       -13.9704155468        7.0216685965        4.0683949459
 H       -12.8544014224        6.6573084035        5.4633233963
 H       -14.7082400437        5.2163540559        5.7221980008
 H       -13.1658905605        4.3479347230        5.4844607363
 H       -15.2773185699        1.0165116414        2.1403537097
 H       -15.4769681460       -0.0032387587        3.4471586047
 H       -14.0342264819       -1.4657871413        2.3567722769
 H       -12.9764214425       -0.7108167604        3.3903349907
 H        -9.7508380869        0.3752903472        0.0182678087
 H        -8.8075223762       -1.0897849812        0.2237741949
 H        -8.6459034995       -0.6675671438        2.3300433080
 H       -10.2341854616       -0.7460534856        2.7424584468
 H        -7.0324859324        3.7782027344        0.5442118432
 H        -8.4526628686        4.8476439290       -0.2120833070
 H        -6.7497332963        4.4851656510       -1.9413371902
 H        -8.1816600018        3.1167517523       -2.3130528474
 H        -5.1608072032        2.9636022537       -6.0015800367
 H        -3.5888472581        3.5967875825       -5.4261494536
 H        -4.2217944514        4.9209472433       -7.1704167110
 H        -4.3666097802        5.8987596897       -5.7615141644
 H        -5.9100574113        9.8162696163       -7.7621864134
 H        -5.8481617325        8.7653062036       -9.0887617218
 H        -4.2500040121        9.3158404472       -8.4302758180
 H        -7.5583108669        6.3667607839       -9.3971743243
 H        -6.0898570001        5.2148771711       -9.2120536531
 H        -5.8763155150        6.8221802564       -9.7821718517
 H        -7.6451390472        7.4824178856       -5.7670226297
 H        -8.5707427730        6.5440464196       -6.9687193523
 H        -8.0382988116        8.2167223731       -7.4238499425
 H        -3.1855713723        1.8018872810       -3.8089077874
 H        -3.7681842748        1.5112308639       -2.0933123734
 H        -3.4096231853        3.0685168136       -2.7208958526
 H        -6.6753769310        1.6030354911       -4.6990792244
 H        -6.7572196334        0.3743360887       -3.4417978039
 H        -5.2414923749        0.6158341333       -4.1622140062
 H        -7.5672432231        4.2269590478        2.7481354513
 H        -8.5894116892        3.1714722449        3.7550313796
 H        -9.3530206374        4.1637979745        2.4035481665
 H        -6.3091826453        2.2635935984        2.4632469105
 H        -6.8729814317        1.1410613225        1.1816933963
 H        -7.2218879624        0.8231978709        2.6589921871
 H       -14.4938184540       -1.5956562709        0.2529919570
 H       -13.1373699066       -2.8310375278        0.2280886356
 H       -13.7276070440       -2.0043083675       -1.3568278197
 H       -12.8453000367       -0.2409824474       -2.2544491097
 H       -11.3976091682        0.4265021156       -1.6676370565
 H       -13.0635841767        1.0978766362       -1.0614321877
 H       -16.6635331882        3.2437727009        5.8421883140
 H       -14.9778002400        2.7493448816        6.3215427908
 H       -16.0232163826        1.5681725312        5.5893137849
 H       -17.3494216930        3.1894992239        3.2046377599
 H       -16.9313393323        1.6124608605        3.6378700252
 H       -16.2022381975        2.5462792662        2.2709532269
 H       -10.1315359346        7.6596306323        4.1952346586
 H       -10.3429696644        8.8800940633        3.0313372340
 H        -9.5920338525        7.4616808308        2.4348382931
 H       -12.9219270682        8.8320219586        3.5022609068
 H       -13.7472946214        8.0238419251        2.1753714096
 H       -12.5030150041        9.1059719212        1.9282349959
 Na      -11.5988901053        3.3166548027        2.3529485262
