117

 C       -10.0381995052       -1.4373295631       -1.6008179049
 C       -10.3556493516       -0.2114375805       -2.4574191980
 O       -11.0312346334        0.7105780910       -1.9232095448
 C       -10.0651172913       -0.2330028742       -3.9769913962
 C        -9.3407107495        1.0845505575       -4.3267743122
 O        -9.8874523237        2.0659695511       -4.8142300440
 C        -7.8525229093        1.2725755716       -4.0737213223
 C        -7.3392646291        1.3679671691       -2.6298440244
 C        -7.9324057034        2.5071352150       -1.8195193966
 O        -8.8735466737        3.1311121574       -2.2620229732
 C        -7.4583607874        2.7908225131       -0.3545000832
 C        -7.9263124789        1.6642159884        0.5355144256
 O        -7.9829549104        0.5441349581        0.0941870601
 C        -8.2025802771        1.9351892521        1.9855911555
 C        -8.1875875274        0.6230652169        2.8460285503
 C        -7.5601434262        0.8015747258        4.1680861198
 O        -6.3424362271        0.8581100648        4.2768609136
 C        -8.3889501103        0.8938515007        5.5155247993
 C        -9.0844232209        2.3779714472        5.4327535715
 O       -10.1244210040        2.5612037135        4.7413606055
 C        -8.2244351813        3.5371981482        5.9775336773
 C        -8.7735209000        4.9485616432        5.7647188537
 C        -8.2919640129        5.3935715580        4.3237626480
 O        -8.0573290615        4.5563440572        3.5198049830
 C        -8.3624232290        6.9536370673        3.8858381074
 C        -9.8639683910        7.1543679672        4.2276896907
 O       -10.2584502655        7.2828536323        5.3861814000
 C       -10.8818952949        7.2323358637        3.0406998044
 C       -11.6024017662        5.9272664982        2.6936424014
 C       -12.4592433717        6.1143712411        1.3457283827
 O       -12.4300057726        7.1979877489        0.7734988497
 C       -13.3222192485        5.0039022084        0.6698124158
 C       -13.1779263876        5.0334095973       -0.9186624664
 O       -13.3196550401        3.9655754741       -1.4902241412
 C       -13.0915558626        6.4005202750       -1.5464456769
 C       -13.1407948961        6.4886702498       -3.0589425880
 C       -11.9147979777        5.8364130399       -3.7656983897
 O       -10.9603361502        5.4873620790       -3.1148227920
 C       -12.0356246280        5.5974310864       -5.3246216870
 C       -12.6471408672        4.1359394727       -5.6840126849
 O       -12.6617490377        3.2340022107       -4.8812578191
 C       -12.9067935685        3.8446501784       -7.1679885062
 C       -12.9610170787        6.7339256531       -5.9873129693
 C       -10.6211313439        5.8292361539       -5.8875378800
 C       -12.9613364426        3.6319423332        1.2814056929
 C       -14.8300166579        5.3494509415        0.8898849150
 C        -7.5229769304        7.9505393635        4.6973897887
 C        -7.9673910210        7.1225034529        2.3764114773
 C        -9.4226068165       -0.2595218765        5.6893802512
 C        -7.2689650117        0.8880345682        6.6409558858
 C        -5.9593844184        2.7626810113       -0.2661703741
 C        -7.9823887654        4.2054865628        0.0826697087
 C        -9.3085801720       -1.5039684110       -4.3886471131
 C       -11.4634337778       -0.1539188434       -4.6509610875
 H       -10.5375605053       -1.2277787006       -0.6110853535
 H        -9.0448775539       -1.7001009316       -1.4771142275
 H       -10.5446213654       -2.3441738098       -2.1067591145
 H        -7.4985100085        2.1684393429       -4.6090396336
 H        -7.2508331121        0.4303791530       -4.3597819173
 H        -6.2253154418        1.4723865340       -2.7470527042
 H        -7.5219301197        0.4279125033       -2.0106805566
 H        -9.2313235778        2.4389056750        2.0977577381
 H        -7.4059019503        2.6306194739        2.3335456304
 H        -7.6788846668       -0.2233703259        2.2760453929
 H        -9.1741480116        0.2017721965        2.9747663588
 H        -7.2050059068        3.4092503436        5.5027703753
 H        -7.9120626703        3.3603846611        7.0370850212
 H        -8.4647895919        5.7008622312        6.5143087541
 H        -9.8189712560        4.8745730465        5.7226799377
 H       -10.3899953174        7.5736060991        2.1501391439
 H       -11.5660704027        7.9982102106        3.3773000580
 H       -12.2344291542        5.3746318453        3.4917874158
 H       -10.8985416316        5.1001541753        2.4715069975
 H       -12.1888138537        6.8405484665       -1.2248914365
 H       -13.9359821646        6.9703771247       -1.1293817688
 H       -13.1234151762        7.5560970579       -3.2654877140
 H       -14.0697472790        6.1418793958       -3.4903063492
 H       -13.0453446284        4.7275921658       -7.8366203084
 H       -13.7528162729        3.1307809926       -7.1781172109
 H       -12.0344267913        3.2702298165       -7.4125408036
 H       -13.9818705760        6.4531485836       -5.7983873094
 H       -12.7022699732        6.8253165652       -7.0102287717
 H       -12.6247363582        7.6738870841       -5.4874465400
 H       -10.0178165277        4.9855866886       -5.4805613636
 H       -10.1886954279        6.7778388271       -5.5196267485
 H       -10.6192707177        5.7906411685       -6.9601656720
 H       -11.8822910982        3.3497861493        1.2146988744
 H       -13.3869696493        2.9368923961        0.6181568784
 H       -13.3259836101        3.6246309532        2.3220219817
 H       -15.1819231963        6.2366666009        0.3080612876
 H       -15.0676667506        5.5026140679        1.9139436582
 H       -15.3751027614        4.4285324043        0.6256902528
 H        -7.5751935777        9.0028070255        4.3415988597
 H        -6.4898837943        7.7463407918        4.7275765468
 H        -7.7936713085        8.0697811866        5.7359741940
 H        -8.7523114964        6.6236459526        1.7615284439
 H        -7.0057972186        6.6856945801        2.0003279435
 H        -7.8823818215        8.2048548124        2.1320857967
 H        -8.8555773219       -1.1943844302        5.7682461923
 H       -10.0615988864       -0.4692926300        4.8244618802
 H        -9.8529024491        0.0376081319        6.7110798281
 H        -6.9407480074       -0.0620396636        6.9827775134
 H        -7.6814419354        1.3887747994        7.5812450946
 H        -6.4894625465        1.5507620171        6.2864606490
 H        -5.4247772157        3.5416177296       -0.8320491655
 H        -5.6455285269        1.8475761827       -0.7188184084
 H        -5.6274286938        2.9387703914        0.7366025846
 H        -7.6261501271        4.9875049715       -0.5955434105
 H        -7.4216167822        4.4628482255        1.0368930007
 H        -9.1125911239        4.2474635184        0.0578069919
 H        -8.4089748605       -1.7844797040       -3.8490552094
 H        -9.0561560932       -1.4897420242       -5.4073260826
 H       -10.0185415914       -2.3461653096       -4.1981933664
 H       -11.9757769302        0.8157764105       -4.3913950675
 H       -12.1294128939       -0.9873420909       -4.3674923097
 H       -11.3765393011       -0.2381617427       -5.7113249382
 Na      -11.4640107782        2.9072557659       -2.9039540336
