117

 C       -11.4757827905        7.2281287405       -0.1902218465
 C       -11.3393746766        6.4096936850        1.0655079131
 O       -10.5846362856        5.4751550242        1.1275588811
 C       -11.6933913231        7.0747241502        2.4635294561
 C       -12.0789692450        6.0712987956        3.6400464432
 O       -11.4042944803        5.0684096629        3.8595465681
 C       -13.3080502348        6.3290238019        4.4766177427
 C       -13.9074365695        4.9263807835        4.9915306059
 C       -14.6978927674        4.1661160375        3.8864031290
 O       -14.5373147942        4.5636679684        2.7516773651
 C       -15.3541029816        2.7578870387        4.2622858657
 C       -14.1116810028        1.7393915094        3.8220026367
 O       -12.9471178329        1.8733084805        4.3166076750
 C       -14.4294292978        0.5986008860        2.8462386807
 C       -13.2886776475       -0.3472373286        2.3524315342
 C       -12.7217839772        0.2802855939        1.1081994791
 O       -12.3464806149        1.4078019922        1.1726189150
 C       -12.5169285919       -0.6394959005       -0.1453708199
 C       -11.0333059739       -1.2778351593        0.0567747697
 O       -10.8429880655       -2.3953707695       -0.3401909056
 C        -9.7323874662       -0.4164734573        0.4475598962
 C        -9.6997444409       -0.2279830193        2.0328059236
 C        -9.6259490774        1.2764011843        2.4882196936
 O       -10.5071084863        1.7696885980        3.1538274230
 C        -8.4908589040        2.1227298033        1.9407910262
 C        -8.8072877410        2.7823415067        0.4155815028
 O        -9.9905210406        2.7137925385        0.1080897260
 C        -8.0003376941        3.9111562556       -0.2221830212
 C        -7.4152903459        3.7053140263       -1.6551243121
 C        -6.1592080926        2.7473646282       -1.6758403931
 O        -5.8422094412        2.0341258400       -0.7626652678
 C        -5.3947219359        2.5106967159       -3.1569126169
 C        -5.3475342987        3.7949417641       -4.0963441002
 O        -5.6596001655        4.8660767370       -3.6744461185
 C        -4.5579996494        3.5628127661       -5.4104158729
 C        -4.7870965314        4.7754323755       -6.4553618901
 C        -6.2352084563        5.3074426110       -6.5406232259
 O        -7.1211074627        4.7194865656       -6.0306246719
 C        -6.3922571399        6.6144028668       -7.4526284002
 C        -5.3206881174        7.7625659388       -7.1222496302
 O        -4.5576595389        7.7677144033       -6.1276646947
 C        -5.2935824249        9.0025828587       -8.0871611834
 C        -6.2387566795        6.1194982138       -8.8916593454
 C        -7.7377842093        7.2226296119       -7.1270055339
 C        -3.8786423765        2.0640141615       -2.8684080672
 C        -6.0840408952        1.3042341360       -3.7598432058
 C        -8.5116932953        3.7333108358        2.6298352824
 C        -7.0454847786        1.4778928740        2.0834655603
 C       -13.5676450753       -1.8236244520       -0.2433378762
 C       -12.4609566595        0.2438802186       -1.4372914914
 C       -15.6969375379        2.9542841494        5.8271266909
 C       -16.5880326465        2.6691646413        3.3518748727
 C       -10.3376483466        7.7629009470        2.9185556276
 C       -12.7036900727        8.2561368022        2.3167832136
 H       -11.4821526859        6.5998571996       -1.0310859817
 H       -10.4695870690        7.7385889813       -0.3643618217
 H       -12.3637685079        7.8634589793       -0.1743040982
 H       -14.0331160178        7.0139925594        3.9588387916
 H       -12.8664169857        6.8083096731        5.4719051360
 H       -14.3647484718        5.1388652268        5.8817512345
 H       -13.0882959556        4.2027154790        5.2928340584
 H       -15.0075367298        1.1082081627        2.0248692605
 H       -15.2661551089        0.0341690413        3.2836797780
 H       -13.5445555880       -1.3808282895        2.0746111499
 H       -12.6836219763       -0.5591668151        3.2124608486
 H        -9.6604960075        0.5207659205       -0.1369774885
 H        -8.8499470775       -1.0138746343        0.1810465146
 H        -8.9614236941       -0.8795149844        2.4280575101
 H       -10.6374442173       -0.7147428466        2.5222932645
 H        -7.3393839871        4.2749167900        0.5506813226
 H        -8.7728602442        4.6498432449       -0.4997518239
 H        -7.0624774368        4.6786978561       -2.0244534708
 H        -8.2434765848        3.1434441313       -2.1334157022
 H        -4.7436340908        2.5715761968       -5.8774218247
 H        -3.5363425554        3.8568668805       -5.1856113143
 H        -4.4233859362        4.4328677330       -7.4031557674
 H        -4.1193084042        5.5622155021       -6.1499982274
 H        -4.9955360050        9.8422286254       -7.5587248460
 H        -6.2555756574        9.2463091782       -8.6776354400
 H        -4.5124908457        8.6894134532       -8.7337325510
 H        -7.2287923206        5.9175004842       -9.2900033956
 H        -5.6378087715        5.2467995506       -8.9465076404
 H        -5.8017816460        6.7694869860       -9.6253986307
 H        -7.7577634437        7.3724506076       -6.0051105410
 H        -8.5847103999        6.5795644663       -7.3676355949
 H        -7.7517275616        8.0923168530       -7.8221035630
 H        -3.1847133626        1.8275610324       -3.7106362567
 H        -3.9531304296        1.2311302808       -2.1086315351
 H        -3.3955295809        2.9191080071       -2.4280041757
 H        -6.9815249942        1.4603876059       -4.4635762011
 H        -6.5513545626        0.6446956914       -2.9481962728
 H        -5.4061062286        0.5480174397       -4.0560213378
 H        -7.6599062649        4.3228973239        2.2773347038
 H        -8.4479038126        3.7217540789        3.7564547744
 H        -9.4025726627        4.2015927966        2.1166884599
 H        -6.2939372107        2.2747950384        2.1528545524
 H        -6.7897335823        0.6401630396        1.4507020872
 H        -6.9420491644        1.0197734230        3.0290718075
 H       -14.5892762146       -1.4703611114        0.0046257051
 H       -13.4275661811       -2.7580928274        0.3272025140
 H       -13.5079531488       -1.9818180080       -1.3416743855
 H       -12.8045152673       -0.2922603917       -2.3315823694
 H       -11.4511071419        0.6448334739       -1.7972069082
 H       -13.1757075925        1.0319347961       -1.2021199385
 H       -15.9216605204        3.9826486350        5.9998644115
 H       -14.9186155547        2.6051498931        6.4858427066
 H       -16.5543484313        2.3920177753        6.0551843731
 H       -17.4755064336        3.2267898060        3.4462943241
 H       -16.9888062723        1.6469290408        3.5401131627
 H       -16.2944826822        2.8799665708        2.2679909316
 H        -9.7952159291        7.5321686548        3.8765184896
 H       -10.6871155134        8.7630260074        3.1139720311
 H        -9.6482705216        7.9220845164        2.1216289864
 H       -13.0433209523        8.6428677180        3.2606005540
 H       -13.6485477958        8.0227758796        1.8111715002
 H       -12.3585594902        9.1301915804        1.8424305599
 Na      -11.6752187767        3.3138118255        2.3029898778
