117

 C       -10.3319562236       -1.0668338194       -1.3430169206
 C       -10.6954729822        0.0263742565       -2.2627793455
 O       -11.3686015523        0.9318760445       -1.8804496177
 C       -10.3121254064       -0.1464715747       -3.8479472154
 C        -9.6403701910        1.1709142582       -4.3006703833
 O       -10.3045747063        2.0791628105       -4.7549547685
 C        -8.1631102838        1.4837300940       -4.1710213622
 C        -7.6398588657        1.3147852682       -2.7699607925
 C        -8.1458669038        2.4739392881       -1.8312774709
 O        -9.2363158313        2.9780058525       -1.9888641994
 C        -7.3370203162        2.8658614805       -0.5712347468
 C        -7.6439918567        1.6334638933        0.4704401074
 O        -7.9855456374        0.5403734463        0.0450960467
 C        -7.4585588868        1.8304237383        2.0163253126
 C        -8.1125301984        0.7969142300        2.9002477349
 C        -7.3651710940        0.8522282736        4.3115884045
 O        -6.1535683886        0.7704917035        4.3301673457
 C        -8.1735967006        1.0574750588        5.6310343852
 C        -8.6862189424        2.5544661888        5.4950834988
 O        -9.7463256680        2.7223139145        4.9918454731
 C        -7.8625434122        3.7626705306        5.9630585103
 C        -8.6089554044        5.0757558854        5.6859359506
 C        -8.3167740836        5.5477047950        4.2730217401
 O        -7.8561497971        4.7665764298        3.4327140204
 C        -8.5448188447        7.0469206533        3.9238770263
 C       -10.1117775727        7.4376475533        4.0669978156
 O       -10.6214739630        7.6744890718        5.1335789693
 C       -11.0155349187        7.5014603652        2.8294108554
 C       -11.5106580518        6.1226244025        2.4406680575
 C       -12.5833016233        6.2188931636        1.2964748543
 O       -12.8167870266        7.2718323064        0.7540108160
 C       -13.3105043208        4.9529226469        0.8005159185
 C       -13.0431302399        4.6761833379       -0.6833621443
 O       -12.8531089083        3.5419586740       -1.0538312172
 C       -13.1190496314        5.8555161390       -1.6355272507
 C       -13.2557435485        5.6256078834       -3.1697318611
 C       -11.9140780433        5.4150240547       -3.9216088955
 O       -10.8297290061        5.3791580757       -3.3625226477
 C       -11.8899921673        5.3517008228       -5.6122047201
 C       -12.4653136473        3.8982968883       -5.8696477436
 O       -12.8962385272        3.1851167949       -4.9281804961
 C       -12.4581697441        3.3933406184       -7.2919624104
 C       -12.7485340772        6.4338441890       -6.2490081890
 C       -10.4608456853        5.4030027196       -6.1745968609
 C       -12.9457691234        3.6676092044        1.6623784850
 C       -14.9119758231        5.1451945691        0.9803408757
 C        -7.7514481678        7.8797955678        4.9586756339
 C        -8.1162755522        7.4048656604        2.4368807991
 C        -9.3649662624       -0.0099379036        5.7945085900
 C        -7.1226392373        0.8763462065        6.6919697873
 C        -5.7688852867        2.9987114167       -0.7808974617
 C        -7.8737407829        4.2438364981       -0.0056286385
 C        -9.3973144697       -1.3880287941       -4.1444817256
 C       -11.7088382978       -0.4326100777       -4.5138896428
 H       -10.5751206925       -0.7487729225       -0.3412454894
 H        -9.1945079038       -1.3032874546       -1.3312921939
 H       -10.8200734164       -1.9286527397       -1.7246717058
 H        -7.9535433719        2.5064489686       -4.4584445644
 H        -7.6044182999        0.8328334242       -4.8623351170
 H        -6.5237507820        1.4716849485       -2.6655619726
 H        -7.7854874254        0.3069859623       -2.3275393991
 H        -7.8834386411        2.8520084676        2.2482693795
 H        -6.3529884015        1.8562140839        2.2193222729
 H        -8.0688995608       -0.2368802077        2.5415359751
 H        -9.2091694447        1.1027468687        2.9571229513
 H        -6.8380122916        3.8704435359        5.4336611902
 H        -7.5999229617        3.7207304393        7.0277357982
 H        -8.2367952479        5.8497951303        6.3122190627
 H        -9.6834082280        4.9492705807        5.7959591967
 H       -10.4628462347        7.9420698412        2.0181104537
 H       -11.8370817819        8.1219929662        3.1116088568
 H       -11.9746145130        5.5264999881        3.2680885751
 H       -10.6871344731        5.3883750707        2.1498572473
 H       -12.2641063647        6.4614494686       -1.4065955522
 H       -14.0389509149        6.3968679986       -1.3191978076
 H       -13.6187537095        6.5575990961       -3.5873613412
 H       -13.9726304202        4.8489798862       -3.3774296338
 H       -12.2700712455        4.1244395160       -8.0495569527
 H       -13.4849812264        3.0849921801       -7.4187162073
 H       -11.7799804397        2.4764135821       -7.4029467332
 H       -13.7538646184        6.4109129147       -5.8284145831
 H       -12.6685902899        6.2392193763       -7.3350913538
 H       -12.3450572574        7.3962075004       -5.9754678480
 H        -9.7172520433        5.2104379164       -5.3821267862
 H       -10.1577529868        6.3816237305       -6.5865722215
 H       -10.4512024288        4.6809682788       -7.0032110822
 H       -11.8807306620        3.5501150998        1.7021223473
 H       -13.5486263031        2.7809121029        1.3697534537
 H       -13.2335932201        3.8885839131        2.6897571640
 H       -15.1189785571        6.1838881989        0.9298188056
 H       -15.2086221481        4.8836732716        1.9913436313
 H       -15.5173101854        4.4761917091        0.3601325680
 H        -7.2266396728        8.7125850120        4.6176323653
 H        -6.9227896286        7.3628498637        5.4298045777
 H        -8.4348746850        8.2926005284        5.6939464467
 H        -8.6968723405        6.9627607878        1.6305442538
 H        -7.0929415679        7.0311138948        2.2918244963
 H        -8.1278424926        8.4950261341        2.2962616611
 H        -8.9881988176       -1.0070186857        5.3964351939
 H       -10.2166266807        0.4918008807        5.2204691435
 H        -9.7185116573       -0.1231508058        6.8279946576
 H        -6.7095055551       -0.1672302465        6.7377467625
 H        -7.4423422667        1.2257555754        7.6296094968
 H        -6.1811912549        1.3702198109        6.4396773837
 H        -5.5341020289        3.9759508625       -1.2353540414
 H        -5.2023220729        2.2044384581       -1.2830150667
 H        -5.2840757543        2.9404845067        0.1930752266
 H        -7.6042742027        5.0873557488       -0.7320211104
 H        -7.3975053642        4.4977946427        0.9680646986
 H        -8.9835754248        4.2062011253        0.1822606330
 H        -8.5081893304       -1.3398466916       -3.5123191661
 H        -9.0550758041       -1.4816118799       -5.1833095122
 H        -9.9324187199       -2.2823151818       -3.8990814732
 H       -12.2620916627        0.4581670525       -4.7040325426
 H       -12.2543128785       -1.1370737509       -3.8850424469
 H       -11.5350801288       -0.9189022562       -5.5276448077
 Na      -11.4905076265        3.1377649504       -2.8001236979
