117

 C       -11.1758591652       -1.7281831871       -1.2020895958
 C       -10.6951096650       -0.5102285840       -2.0185815194
 O       -10.9606232356        0.6504511175       -1.7695173959
 C       -10.0706248707       -0.8433045353       -3.4232423013
 C        -9.5392765489        0.5031293357       -4.0452876269
 O       -10.3949888817        1.2427396278       -4.5096188256
 C        -8.0060293073        0.7272934499       -4.1543810521
 C        -7.3452522207        0.7870585538       -2.7137978235
 C        -7.8845782629        1.9970354122       -1.9827917196
 O        -8.6708524268        2.7430783501       -2.5627083344
 C        -7.1848512459        2.5133196883       -0.7276154192
 C        -7.2096809709        1.2859993650        0.4532354985
 O        -7.9487073199        0.3271552823        0.3172116582
 C        -6.5207977920        1.4932278078        1.7733756109
 C        -7.3721387358        1.0115769355        2.9069294667
 C        -6.8691747112        1.5702565649        4.2724265713
 O        -5.6858263505        1.9569745140        4.3626353595
 C        -7.7836340205        1.6813194974        5.5804164997
 C        -8.4248046258        3.1156942153        5.5169808319
 O        -9.5660259704        3.2177198252        5.1681196300
 C        -7.6164190769        4.3838643576        5.9132120278
 C        -8.5217807494        5.5949357448        5.7625283161
 C        -8.2620784200        6.2515943705        4.3580225114
 O        -7.4985776538        5.6527068537        3.5887092451
 C        -8.7940619818        7.6666218091        3.7914367875
 C       -10.3246546583        7.6074396019        3.9414087347
 O       -10.8055095746        7.4432186007        5.0544743831
 C       -11.3092333196        7.6861210399        2.7600512573
 C       -11.8641187227        6.3084452168        2.4933926003
 C       -12.6918680088        6.3667060465        1.2422366342
 O       -12.8969041156        7.4245185714        0.6780180340
 C       -13.3991270350        5.0894572717        0.5864429191
 C       -13.0778324468        5.0484106601       -0.9331730855
 O       -12.5105370821        4.0691560458       -1.4312441548
 C       -13.2804797737        6.2767651038       -1.7775969319
 C       -13.4487991623        6.1565696338       -3.3263622447
 C       -12.2572265322        5.5149051082       -4.1054069846
 O       -11.1211694441        5.7978364238       -3.8378474557
 C       -12.5863578908        4.8606078581       -5.5288239882
 C       -13.2242599599        3.5010205613       -5.3982635709
 O       -13.1716500137        2.7388423425       -4.3903602561
 C       -14.0680719910        2.9430775712       -6.4961593935
 C       -13.3665318170        5.8576157348       -6.4036738531
 C       -11.2134058114        4.5588941645       -6.2241263895
 C       -12.9643424246        3.7063011196        1.1556999987
 C       -14.9280332347        5.2389358800        0.9290161747
 C        -8.1542863057        8.7668317725        4.7386546599
 C        -8.1573977956        7.8438279932        2.3870173599
 C        -8.9347143095        0.7015383203        5.4981501180
 C        -6.8894456322        1.4306188520        6.8421158257
 C        -5.7129807072        3.0084645542       -0.9510706021
 C        -7.9879642518        3.6731014806       -0.1202297311
 C        -9.0914194606       -2.0429353456       -3.3166281922
 C       -11.2062723456       -1.3276557360       -4.3740889660
 H       -11.6340686982       -1.4942158181       -0.2172462508
 H       -10.3353892492       -2.5394207349       -1.1218781646
 H       -11.9872144286       -2.1531645860       -1.7427937742
 H        -7.7473194039        1.6302278627       -4.7163803264
 H        -7.5256550413       -0.1140349918       -4.5718741716
 H        -6.2760001853        1.0444890299       -2.7788339840
 H        -7.5677819964       -0.1733144019       -2.1934180312
 H        -6.3891693410        2.6354073525        1.9421243275
 H        -5.6150682959        0.9373974436        1.8023527667
 H        -7.2417507146       -0.0806965463        3.0271079660
 H        -8.4239990554        1.1481659868        2.7568802962
 H        -6.6874602785        4.5300740231        5.2870716148
 H        -7.2109569551        4.3372819761        6.9627539134
 H        -8.4418029932        6.3739275678        6.5551121307
 H        -9.5421547039        5.3533460937        5.7916854112
 H       -10.8056210974        8.0025203412        1.8556930392
 H       -12.1178797848        8.2808348627        3.1267654523
 H       -12.6144584662        5.9549418176        3.3249981894
 H       -11.1115894292        5.4806279509        2.4006049596
 H       -12.4730337509        6.9058885142       -1.5089842317
 H       -14.1773044004        6.8293675281       -1.3436181489
 H       -13.5802512555        7.1526221493       -3.7340613754
 H       -14.3707599678        5.6684472892       -3.6326410217
 H       -15.0494645442        2.7645853963       -6.1637597706
 H       -13.6087792325        1.9774041972       -6.7709856734
 H       -14.1397467205        3.5849585406       -7.4319453507
 H       -14.3459222216        6.1157044749       -5.9915381149
 H       -13.4491174479        5.5683370535       -7.4464785033
 H       -12.8948325973        6.8559056489       -6.3954813322
 H       -10.9731502171        3.5177190834       -6.1296351670
 H       -10.3616698054        4.9635518609       -5.7016517629
 H       -11.2168709173        4.7917459298       -7.2557702706
 H       -11.9221467215        3.5744425466        1.0307627501
 H       -13.5325087127        2.8503687031        0.9012349916
 H       -12.9651636731        3.7994844257        2.2198659692
 H       -15.3627270496        6.2241242428        0.8223183842
 H       -15.1137365714        4.9330606699        1.9440854722
 H       -15.5293913810        4.4397428802        0.3979652442
 H        -7.5611525536        9.4673473029        4.1455169706
 H        -7.4149695257        8.3033698994        5.3857088353
 H        -8.9925075687        9.3492393449        5.2005691028
 H        -8.2870406861        6.9645726148        1.7732615071
 H        -7.0766991158        7.8514553708        2.5271848182
 H        -8.5226326427        8.7507642364        1.9106439697
 H        -8.5020597489       -0.2963628502        5.3424228769
 H        -9.6433002716        0.8520270734        4.6617958850
 H        -9.4675342065        0.7957679406        6.4040667819
 H        -5.8526724416        1.0443371377        6.6119824249
 H        -7.4234974285        0.8192544282        7.5074888288
 H        -6.6420123858        2.3485786430        7.3804099668
 H        -5.7350166965        3.8207781265       -1.7350202164
 H        -5.0369082380        2.2081165789       -1.3000106011
 H        -5.3129655402        3.4823977912       -0.0601214851
 H        -7.6098051765        4.6247227683       -0.5249991034
 H        -7.8648792125        3.7919394228        0.8900330856
 H        -9.0220389642        3.5758887125       -0.3238987544
 H        -8.3063723169       -1.9039014158       -2.5621970801
 H        -8.5658636857       -2.1090967316       -4.2476052390
 H        -9.7109875865       -2.9524470364       -3.1556191485
 H       -11.9070609014       -0.5736166053       -4.4414957176
 H       -11.6314890477       -2.2153081142       -4.1097101174
 H       -10.7588808109       -1.4615753923       -5.3585217107
 Na      -11.3619373117        2.7086439911       -2.8644767376
