117

 C       -11.6151343623        6.9358228683       -0.3080446390
 C       -11.3094637041        6.2978598407        1.0330271410
 O       -10.8718590880        5.1455664238        1.1102202867
 C       -11.6733686846        7.1691679003        2.3471066259
 C       -12.0045481401        6.2072811871        3.4590519704
 O       -11.4049445907        5.1806678820        3.7316841158
 C       -13.3411806295        6.4394148621        4.3701592324
 C       -13.7919947074        5.1477818400        4.9980450861
 C       -14.5470387756        4.2452101814        4.0623611950
 O       -14.5543245096        4.6279437294        2.8850968370
 C       -15.2895595724        2.8725744840        4.4952609494
 C       -14.2083782412        1.8274681391        4.0082269978
 O       -13.1342442827        1.9412534259        4.5043324263
 C       -14.4223092888        0.8263443627        2.8609446793
 C       -13.0703778100        0.3239545251        2.4294178095
 C       -12.6068869955        0.5949251670        0.9732514562
 O       -12.3049397176        1.7733929574        0.7276236807
 C       -12.5160862211       -0.5088713439       -0.2340594010
 C       -11.0268829127       -1.2678821077        0.1225222001
 O       -10.9556464875       -2.4441802475       -0.0449429965
 C        -9.8725839581       -0.3373778570        0.3658936670
 C        -9.7527644110       -0.0561586481        1.8608467588
 C        -9.5984276400        1.4154976194        2.3815117276
 O       -10.2765024015        1.9210726585        3.2735946541
 C        -8.4186122623        2.4349692141        1.9103982098
 C        -8.8461955112        2.9393635591        0.4981100401
 O        -9.9422003442        2.8401835545       -0.0206315852
 C        -7.8548830357        4.0323572463       -0.2204409123
 C        -7.5714539401        3.7282233671       -1.7892139547
 C        -6.3431392299        2.6937316293       -1.8024088379
 O        -6.1329183484        2.1184310331       -0.7556050853
 C        -5.4557599168        2.4717563543       -3.0322468302
 C        -5.3005898727        3.7220278887       -4.0480493521
 O        -5.7748123971        4.8337123102       -3.8549322848
 C        -4.4993969115        3.3220766174       -5.3051260304
 C        -4.7003434605        4.3607560275       -6.4509072473
 C        -6.0641724198        5.0757387018       -6.5631807401
 O        -6.9745468521        4.4630147041       -6.0059324059
 C        -6.2338045624        6.3094800494       -7.4557828888
 C        -5.2743793644        7.5379056909       -6.9031585119
 O        -4.6198132052        7.3652517635       -5.9199525862
 C        -5.2394257333        8.7059687260       -7.8058563627
 C        -5.7428377616        5.8533479198       -8.8760073258
 C        -7.7273548859        6.8095633298       -7.5612669776
 C        -4.0508203164        2.0115311380       -2.4817773129
 C        -6.2897839549        1.4647659778       -3.8550239725
 C        -8.2102577469        3.4486024009        3.0333383952
 C        -7.1578791835        1.5321311674        1.8011748673
 C       -13.6611709454       -1.5455727474       -0.2051009150
 C       -12.4372391266        0.3300689611       -1.5080093449
 C       -15.5750363260        2.5437115832        5.9237420678
 C       -16.5685243903        2.8239029748        3.6488644664
 C       -10.3408361126        7.7343384608        2.8288190015
 C       -12.7823276147        8.1455367584        2.0639945214
 H       -11.0464516736        6.4316150177       -1.1367719316
 H       -11.3743604182        7.9718683589       -0.2112267062
 H       -12.6471799662        6.7282152480       -0.4542645204
 H       -14.2244811114        6.7786719722        3.8094824096
 H       -13.0133692118        7.1547912208        5.0477635611
 H       -14.3874372618        5.3418708914        6.0100251966
 H       -12.9453477973        4.5865844393        5.3939897346
 H       -15.0859570139        1.1450761180        2.0935794305
 H       -15.0462356925        0.0595683752        3.3310753891
 H       -12.8105004400       -0.6960751483        2.6532430901
 H       -12.3846227410        0.8624882394        3.1068075106
 H       -10.0532017886        0.6389259245       -0.1437216939
 H        -8.9555854773       -0.7260171237       -0.1898133513
 H        -8.8605947099       -0.6130133148        2.3065238895
 H       -10.5947726060       -0.5357775299        2.2895392259
 H        -6.9394609042        3.8107586466        0.2363009795
 H        -8.2576013709        5.0728911852       -0.2015579302
 H        -7.2001419506        4.7442817420       -2.0754425204
 H        -8.4135803879        3.3898242608       -2.3797850995
 H        -4.9107723033        2.3842858805       -5.6653871003
 H        -3.4302190709        3.4073366739       -4.9893894479
 H        -4.5842690608        3.7836163253       -7.4232533038
 H        -3.8737990575        5.1175017168       -6.3399489919
 H        -4.1881204240        8.9688403584       -8.0622258381
 H        -5.5733999688        9.4821758771       -7.1783712246
 H        -5.9953590714        8.6168443692       -8.6533987394
 H        -5.8898747165        4.7550988819       -9.0542482539
 H        -4.6267256644        6.1769387570       -8.9612630527
 H        -6.3619169190        6.4094797693       -9.6525009054
 H        -8.1096965440        7.1311488911       -6.6284420977
 H        -8.3209063736        5.8848100277       -7.7767799709
 H        -7.8125313362        7.4158461934       -8.4406658269
 H        -3.3706982435        1.7261153662       -3.3392614100
 H        -4.3317398690        1.0531554830       -2.1206833298
 H        -3.4440127484        2.6192026110       -1.8004441561
 H        -7.2549648051        1.8750901540       -3.8205196410
 H        -6.3204939434        0.5233596787       -3.3705410734
 H        -6.0518493120        1.0854940677       -4.8513906855
 H        -7.2428227451        3.9175124729        2.7638216760
 H        -8.1378583486        2.8999578630        3.9302143314
 H        -8.9338004721        4.2062764332        3.0201726413
 H        -6.6326555229        1.6857333658        0.8401399624
 H        -7.4056276405        0.4598284637        1.8078534847
 H        -6.2972441951        1.6845558936        2.5263931329
 H       -14.5686953519       -1.1419048310       -0.5005745712
 H       -13.9519725086       -1.7106574321        0.8034246497
 H       -13.3498213472       -2.3973680556       -0.7378486890
 H       -11.9447025416       -0.2730698841       -2.2823235268
 H       -11.8305721824        1.2105789431       -1.2917926423
 H       -13.3629188883        0.7546717739       -1.8963743254
 H       -16.2141204913        3.2710421135        6.4794808274
 H       -14.6473635029        2.4573217607        6.4903794701
 H       -16.0614357013        1.5237916139        5.9609811292
 H       -17.3194183748        3.4533461565        4.2213514386
 H       -17.1421972612        1.8988614589        3.6362209453
 H       -16.5628373838        3.3680311100        2.7645196699
 H        -9.6221263728        7.0174480243        2.4738660334
 H       -10.1831248149        7.7474745720        3.8937752797
 H       -10.0583629649        8.7338364572        2.4677218809
 H       -13.0930034857        8.8091562004        2.9045396634
 H       -13.7447968451        7.7129744180        1.8458355071
 H       -12.5359477342        8.8447839744        1.2489760096
 Na      -11.8943655196        3.4876254099        2.1403767527
