117

 C       -11.3434950805       -1.5214400211       -1.0603472946
 C       -10.7718344747       -0.4516704799       -1.9654651972
 O       -11.0328421644        0.7204819643       -1.7765653482
 C       -10.0590971461       -0.8604918470       -3.4206057294
 C        -9.3269231221        0.4416901237       -4.1114191552
 O       -10.1033782755        1.3156769371       -4.4520339173
 C        -7.7323743921        0.5598403583       -4.2812255973
 C        -7.0508667363        0.8248156707       -2.8654276784
 C        -7.8276826624        1.8631970932       -1.9584179196
 O        -8.8272127572        2.4165877234       -2.3783233201
 C        -7.1387966615        2.4655455623       -0.7143415806
 C        -7.2518316809        1.3135729996        0.3783885520
 O        -7.7909361140        0.2654278560        0.0961033773
 C        -6.5790830683        1.6349520899        1.7457966905
 C        -7.4016587054        1.1598416266        2.9978532688
 C        -6.8173057473        1.8767261529        4.2791459522
 O        -5.6947197772        2.2485072801        4.3698367170
 C        -7.7709055438        1.8785320286        5.5651738740
 C        -8.4812165706        3.2640423392        5.4728991648
 O        -9.6817082163        3.2976168116        5.1837044012
 C        -7.7026354221        4.4193022805        6.0463599951
 C        -8.3014468171        5.7884437745        5.7092075158
 C        -8.1260971882        6.2303686504        4.2206934237
 O        -7.5449449304        5.5465443022        3.4404375058
 C        -8.7711888601        7.7016236607        3.8465283422
 C       -10.2724976899        7.5657474859        4.0389070018
 O       -10.7806535235        7.4339984491        5.1499370288
 C       -11.1481774449        7.5668088914        2.8242180514
 C       -11.7814588083        6.1742794350        2.4846478610
 C       -12.6704764511        6.2825853778        1.1896292553
 O       -12.8305119467        7.3637364228        0.6451385555
 C       -13.3909552438        5.0998512336        0.6365650044
 C       -13.0070265532        5.0460227490       -0.9662215639
 O       -12.6201045594        3.9888433290       -1.4191557475
 C       -13.3102624074        6.2611516167       -1.8686137756
 C       -13.4148741317        6.0100948900       -3.3555057082
 C       -12.2539876895        5.4507934788       -4.1862940663
 O       -11.0976585691        5.4388836608       -3.7485071005
 C       -12.6684083040        4.7678885986       -5.5657437002
 C       -13.4868955775        3.5101962573       -5.3550791950
 O       -13.3683417628        2.8344553078       -4.3670766225
 C       -14.4565695670        3.0093271896       -6.3592844310
 C       -13.4558073373        5.8791852329       -6.4244415906
 C       -11.3875426106        4.2473530141       -6.3338439631
 C       -12.9578082647        3.8098718844        1.2581350362
 C       -14.8759667082        5.2866776120        0.8170743747
 C        -8.2486346695        8.8348940232        4.7469242431
 C        -8.3620373484        7.9195292481        2.3477502815
 C        -8.7429674252        0.6804318557        5.5149399130
 C        -6.8629030980        1.6881737600        6.8561736932
 C        -5.6462255742        2.8295506687       -0.9056618341
 C        -8.0587176098        3.6189428335       -0.2059340485
 C        -8.9899425328       -1.9603618659       -3.1183031765
 C       -11.1877091897       -1.3413808434       -4.3469143164
 H       -12.0737626038       -1.0809236470       -0.4764869424
 H       -10.5831829714       -1.9329676348       -0.4270418987
 H       -11.7858493011       -2.3571066789       -1.6414088298
 H        -7.4500970473        1.3950416879       -4.9266412207
 H        -7.2388279162       -0.3876695820       -4.6510628282
 H        -6.0386210762        1.2268175320       -3.0160403404
 H        -7.0442971876       -0.1148619677       -2.3266372618
 H        -6.4030588177        2.6441058160        1.8518725954
 H        -5.6372663074        1.0019811244        1.6682081744
 H        -7.2830914104        0.0597391824        3.0995829475
 H        -8.5291331116        1.2485654251        2.8895997501
 H        -6.6506163728        4.3851887334        5.8273557858
 H        -7.7408747065        4.2889529492        7.1274975589
 H        -7.9304396177        6.5599622425        6.3444665547
 H        -9.4154910042        5.9454576753        5.8934768822
 H       -10.5720042586        7.8750228764        1.9665181369
 H       -11.9258649722        8.2788624374        3.1635500270
 H       -12.3493657004        5.8151234018        3.2656789814
 H       -11.0670992534        5.3864283621        2.3613866692
 H       -12.4748939841        7.0409034352       -1.6975481746
 H       -14.1834432758        6.7555759099       -1.5128069902
 H       -13.4878363615        7.0377234017       -3.7413712557
 H       -14.3211382579        5.5241419021       -3.7085143683
 H       -15.2828651859        2.5452077749       -5.7293542004
 H       -14.1080776124        2.2692045665       -7.0265468162
 H       -14.8927800794        3.8063334843       -6.9445034355
 H       -14.4654777849        6.2001564992       -6.1137500468
 H       -13.5334808677        5.4486365593       -7.4363119927
 H       -13.0038350380        6.8795655412       -6.4875483397
 H       -11.2817651698        3.1531279507       -6.4967234920
 H       -10.4938841441        4.3900684051       -5.6981130319
 H       -11.2816931872        4.7268726804       -7.3367957966
 H       -11.8612124162        3.6648285653        1.1846200149
 H       -13.5254306215        3.0819483239        0.6911771792
 H       -13.1832177600        3.5728732316        2.3071381540
 H       -15.0978057192        6.3275313648        0.5432671720
 H       -15.2539374936        5.1471294565        1.8317430335
 H       -15.4738280657        4.5914915054        0.3126564782
 H        -8.3873269702        9.7872715412        4.2770951385
 H        -7.2075494243        8.7382654783        4.8984191595
 H        -8.9006565788        8.8056249239        5.5665679806
 H        -8.8618981861        7.1857084788        1.7372638825
 H        -7.3222600009        7.8432137929        2.1669601715
 H        -8.7403870874        8.8682854962        2.0459689449
 H        -8.2490668148       -0.2776915122        5.2529394156
 H        -9.6128868564        0.9053047257        4.8544678920
 H        -9.2631529640        0.6201562961        6.5634565240
 H        -5.9394102609        1.2078645462        6.6545403479
 H        -7.5151631711        1.0472246110        7.5467731598
 H        -6.5303911465        2.5761230584        7.4125925348
 H        -5.5234220781        3.5743880853       -1.6850067721
 H        -5.0184719299        1.9364689607       -1.1003818574
 H        -5.2148292761        3.1831349284        0.0682615577
 H        -7.9616139354        4.5077865500       -0.8380438224
 H        -7.8185894397        3.9785458615        0.8852825962
 H        -9.1369820263        3.2630950566       -0.1615806743
 H        -8.4050782332       -1.6972398476       -2.2595820127
 H        -8.3010031490       -2.0463437739       -3.9656461246
 H        -9.4552914874       -2.9279620765       -2.9976158572
 H       -11.7458794852       -0.4619461256       -4.7666075757
 H       -11.9366676176       -1.9975553836       -3.7391978077
 H       -10.7812045785       -1.9022187199       -5.2176522083
 Na      -11.3632764672        2.6554969612       -2.9197881550
