117

 C       -11.6354314060        6.7892917277       -0.4858834201
 C       -11.5082683138        6.2205956838        0.9357256272
 O       -11.0067346803        5.1299038803        1.0708731423
 C       -11.6838744134        7.0554114180        2.2363005452
 C       -12.0729621780        6.1439594857        3.3713913137
 O       -11.3395762060        5.1854900057        3.6841866844
 C       -13.2886450891        6.5414796291        4.4129313514
 C       -13.7996840767        5.2772039988        5.1167552587
 C       -14.6618482412        4.3337537525        4.1170862028
 O       -14.4890165014        4.4813338522        2.8865359776
 C       -15.3261543671        2.9909277133        4.5288034376
 C       -14.1762175875        1.9630889504        3.9783321376
 O       -13.1267378924        1.9790358874        4.6692454690
 C       -14.3694163532        0.9887326446        2.8651393006
 C       -13.0308359036        0.4388543581        2.3602730076
 C       -12.7926195530        0.8037413126        0.8868299181
 O       -12.4706385358        1.9190750719        0.5435152377
 C       -12.6042374604       -0.3827689440       -0.0705749586
 C       -11.0705666538       -1.1489889168        0.0550197015
 O       -10.9465845866       -2.3253297724        0.1481449685
 C        -9.8076021259       -0.2587302434        0.2804569201
 C        -9.6985912855        0.0833057750        1.8885077406
 C        -9.5467825658        1.4725163158        2.4497898941
 O       -10.4137258405        1.8597609130        3.2198286833
 C        -8.3732255783        2.3868959618        1.9363673904
 C        -8.7843717576        3.1086949201        0.5253777041
 O        -9.7871444072        2.8489075895       -0.0700271033
 C        -7.7695511402        4.1467692481       -0.1318190359
 C        -7.5976585660        3.7324083276       -1.6004585984
 C        -6.4109184776        2.7779471701       -1.7889643762
 O        -6.0849855830        2.1185448612       -0.8485056287
 C        -5.6509192964        2.4362725803       -3.0937503313
 C        -5.2849385537        3.6491297415       -3.9831127210
 O        -5.5780897086        4.7816152507       -3.7294884142
 C        -4.4002992888        3.3483069890       -5.2873792054
 C        -4.6229847552        4.3867441755       -6.3993519576
 C        -6.1242188705        4.8798276925       -6.6499353743
 O        -7.1707933721        4.4755547034       -6.2356163264
 C        -6.1016047096        6.0539116462       -7.5721122973
 C        -5.3034571181        7.3205572492       -6.8879657033
 O        -4.6925089735        7.1481308297       -5.8291530238
 C        -5.2455510719        8.6602433950       -7.6557516658
 C        -5.4922347267        5.7651652457       -8.9718066383
 C        -7.5251806913        6.4608206772       -7.5577520136
 C        -4.2361484925        1.9466715982       -2.5746767200
 C        -6.3908701824        1.3589196598       -3.8366442373
 C        -8.0965532330        3.4655659009        3.0728120834
 C        -7.1203149090        1.4614114729        1.7056075626
 C       -13.7723760460       -1.3738348186       -0.1184524492
 C       -12.3553622236        0.2211632190       -1.5282194494
 C       -15.4114763825        2.4096636532        5.9974619636
 C       -16.6562808682        2.8226475258        3.6868876089
 C       -10.3401061623        7.8380768653        2.8120111769
 C       -12.7142959586        8.2506479364        2.0759981972
 H       -10.7393577481        6.6065208957       -1.1053988354
 H       -11.8041732063        7.9226870083       -0.2731088803
 H       -12.4788139108        6.2855500156       -0.9820091394
 H       -14.1019654740        6.9958238078        3.9638007340
 H       -12.7389272554        7.2537675642        4.9734463599
 H       -14.3014659248        5.4569920089        6.0947470191
 H       -12.9119272078        4.7192329795        5.4651282917
 H       -14.9900527055        1.4238908064        2.0525749189
 H       -15.0307150767        0.2194120716        3.2256644005
 H       -12.8743424484       -0.6589167034        2.4683161011
 H       -12.1578652522        0.8744976835        2.9464510800
 H        -9.6756164703        0.6418752749       -0.2452649771
 H        -8.9812643458       -0.8563184896       -0.0912621726
 H        -8.8898481393       -0.4642596380        2.2622763345
 H       -10.6268043657       -0.3942586176        2.3014413217
 H        -6.8092263027        4.0450058682        0.4178846399
 H        -8.3359634380        5.1783503964       -0.2485649320
 H        -7.5735064951        4.7279570767       -2.1587942211
 H        -8.5004474716        3.0998430534       -1.8925091533
 H        -4.6847103862        2.4523837636       -5.7482779513
 H        -3.4043698845        3.4404688057       -4.8868141065
 H        -4.1794549207        4.0289450494       -7.3801024327
 H        -4.1093283055        5.2788984953       -6.0568373756
 H        -4.4962437790        8.5940923673       -8.3650433194
 H        -4.9462085732        9.4758911908       -6.8781551808
 H        -6.2653783865        8.9547183704       -8.0516743154
 H        -5.0910703534        4.6635718292       -9.0832734272
 H        -4.5895550241        6.4761529056       -9.0804816071
 H        -6.2517455191        5.9526605061       -9.8189664286
 H        -7.8257993340        6.7412880297       -6.5551200515
 H        -8.1036926487        5.5301208332       -7.7695471112
 H        -7.7547130307        7.1612286370       -8.3283310231
 H        -3.3562284575        1.5926560336       -3.2171259849
 H        -4.5461952112        1.0870476052       -1.9938407419
 H        -3.8663174075        2.6617968792       -1.8965089617
 H        -7.4248830844        1.6376015529       -4.1373077257
 H        -6.2788192982        0.3198238863       -3.5316045947
 H        -5.8980159015        1.2695889773       -4.7527108459
 H        -7.2538834154        4.0637826071        2.6768876701
 H        -7.9074545729        2.9483571490        3.9592876596
 H        -8.9601979423        4.1160487337        3.2099906051
 H        -6.7378389667        1.6646683059        0.6825409712
 H        -7.1397576855        0.3936022326        1.8446848826
 H        -6.2787185368        1.8994275773        2.2574335173
 H       -14.5983337233       -0.9995978596       -0.6594024544
 H       -14.3040754182       -1.4045604078        0.8213910143
 H       -13.3512640317       -2.3177003265       -0.4665786936
 H       -11.6715447170       -0.4565436794       -2.0946950364
 H       -12.0344411340        1.3008779288       -1.4865354301
 H       -13.2439183552        0.3292183886       -2.0883141912
 H       -16.3855272191        2.7083567338        6.4939513875
 H       -14.6283412252        2.8563858268        6.6642307264
 H       -15.3391173385        1.2738164123        6.0264394962
 H       -17.3456486872        3.5686192398        4.0558447234
 H       -17.2595964130        1.9194661052        3.7532209557
 H       -16.5777701964        3.1501967365        2.6757806283
 H        -9.3425888764        7.6563128485        2.2966519308
 H       -10.1911905040        7.7615119523        3.8725855850
 H       -10.5843972848        8.8670244487        2.6531535117
 H       -12.9254794218        8.8611097598        2.9929988292
 H       -13.7762650339        8.0106846843        1.8639922540
 H       -12.4301124271        8.9415400861        1.3268718126
 Na      -11.9726908434        3.4579194887        2.1976744947
