117

 C       -10.3200993651       -0.3540936201       -0.1525189002
 C       -10.6357267568       -0.3712107632       -1.6575077219
 O       -11.6028513808        0.2486367183       -2.0740909742
 C        -9.7797653797       -1.2493559748       -2.6836310446
 C        -9.2661321054       -0.1637046759       -3.6969285249
 O       -10.1283549707        0.3454390246       -4.4073098851
 C        -7.8964876294        0.4403731505       -3.8468344860
 C        -7.2142689613        0.9808839861       -2.5642293005
 C        -8.0512815662        2.0448568003       -1.9027952420
 O        -9.2354267314        2.2560110880       -2.0484032619
 C        -7.2627428072        2.9061777439       -0.8460406301
 C        -6.9877089157        1.9230221449        0.3942608766
 O        -7.3537465810        0.7721255150        0.2554255018
 C        -6.4897873421        2.4576431899        1.6845333907
 C        -7.5627189247        2.3225466482        2.7832734047
 C        -6.8702188520        2.3547563460        4.1162040914
 O        -5.6119330985        2.4350125692        4.2043253982
 C        -7.7585992138        2.3251106163        5.3907117198
 C        -8.3368954887        3.8302083450        5.7120692420
 O        -9.5114384271        3.9619085821        5.8779201237
 C        -7.2301543318        4.9256410582        5.7843036701
 C        -7.6674703357        6.2996976355        5.3397991720
 C        -8.1640402293        6.3929629325        3.9314030630
 O        -8.0145210735        5.5088325208        3.1015498454
 C        -8.8886848369        7.8496017774        3.4922653088
 C       -10.4293930999        7.5937585198        3.8819985421
 O       -10.6867399023        7.3811116149        5.0253342787
 C       -11.5037777725        7.6801216431        2.7609459836
 C       -11.7563569765        6.2985899258        2.1657635477
 C       -12.4472119905        6.4386677203        0.8234508183
 O       -12.5057200602        7.5158893201        0.2301638349
 C       -13.1261185480        5.0798818253        0.2005744060
 C       -12.2980757816        4.7977971523       -1.1958215282
 O       -11.9620529536        3.6757718052       -1.4400090257
 C       -11.9769587227        5.8909623555       -2.1789822704
 C       -12.8453712226        5.8310510426       -3.4178883405
 C       -12.4113730871        4.7174591508       -4.3671573704
 O       -11.2434604477        4.2988515234       -4.4616856939
 C       -13.4832240784        4.1581154859       -5.2853296384
 C       -14.1933050202        2.8261988887       -4.5861096501
 O       -13.5677676409        2.1661401770       -3.8222139253
 C       -15.6218726538        2.4720441582       -5.1722367457
 C       -14.4299070810        5.2495690746       -5.7297376856
 C       -12.7373290962        3.5338051385       -6.5455368378
 C       -12.9274959537        3.8067390005        1.1095705524
 C       -14.5860722641        5.4548910465       -0.0141007390
 C        -8.2044015930        8.9421884398        4.2860737560
 C        -8.6514209992        8.0323953834        1.9680590218
 C        -8.9745075059        1.4112772526        5.2576972895
 C        -6.7724965919        1.8841058347        6.5660907976
 C        -5.8723068615        3.3963557923       -1.2759961431
 C        -8.1102266069        4.0494996612       -0.3579331111
 C        -8.6936181573       -2.1910276741       -2.0781759337
 C       -10.8200584750       -2.1194333355       -3.3903486887
 H       -11.1311650488       -1.0093291048        0.3686953676
 H       -10.4306717501        0.6085094796        0.3018383851
 H        -9.3730039251       -0.8084213001        0.1014762758
 H        -7.9287290516        1.2875125652       -4.5491740473
 H        -7.2406208690       -0.3798567695       -4.2820532461
 H        -6.2588456465        1.4508820390       -2.7966205155
 H        -7.1166643841        0.2470777125       -1.7948714218
 H        -6.1913445668        3.4614350826        1.5412610573
 H        -5.5832684717        1.7963408182        1.8849537372
 H        -8.1785547259        1.3973444880        2.6458191786
 H        -8.2291024191        3.2292354409        2.7004875288
 H        -6.3843932451        4.5672098545        5.2153080579
 H        -6.9382104701        4.9152914589        6.8108766981
 H        -6.8387766192        6.9888320997        5.4104022560
 H        -8.6086280550        6.5646916115        5.9527036360
 H       -11.0873120406        8.2714079233        1.9982973907
 H       -12.4649509735        8.0105935173        3.1317641665
 H       -12.3696044369        5.6909423932        2.7665236212
 H       -10.7931570084        5.8136501372        1.9978107515
 H       -10.9206017497        5.8502041965       -2.5430595959
 H       -12.1348593923        6.7895319485       -1.6873127604
 H       -12.8221206472        6.8124776402       -3.9420325190
 H       -13.8966595531        5.6888780787       -3.1580993566
 H       -16.0275303382        1.6028563845       -4.7635561908
 H       -15.5692172913        2.3452681669       -6.2505286536
 H       -16.3378330363        3.3620161916       -4.9467680741
 H       -15.0887945873        5.7413870071       -5.0276717102
 H       -15.0201133201        4.9616326742       -6.5788698058
 H       -13.7494957003        6.0820026170       -6.0264513373
 H       -11.8192479706        4.0190586250       -6.8323218164
 H       -13.4897231255        3.6904019494       -7.3351790107
 H       -12.5651692116        2.5089910177       -6.2746484033
 H       -11.8889055492        3.9077132080        1.4449865962
 H       -13.2037325273        2.9517958615        0.6029836570
 H       -13.5214774642        3.8450886694        2.0129571064
 H       -14.7067381398        6.3165883320       -0.7125346168
 H       -15.0229489033        5.7329510754        0.9362164788
 H       -15.2015480927        4.5975969285       -0.3057692891
 H        -8.5453333343        9.9333311405        4.0421561768
 H        -7.2163878895        9.0202735469        4.0746795575
 H        -8.4276049527        8.7797637141        5.3539143431
 H        -8.8660979188        7.0989765553        1.3949733533
 H        -7.6034896591        8.2734746367        1.7567880333
 H        -9.3229536093        8.7654030249        1.5001285884
 H        -8.8072232672        0.3563398603        5.0567846787
 H        -9.6492783663        1.5904846087        4.3834816610
 H        -9.6084333100        1.6142948508        6.1510994285
 H        -6.3759502121        2.7105414072        7.1373240173
 H        -6.0241728479        1.2544662387        6.0466475514
 H        -7.2878537403        1.2005627068        7.2700501992
 H        -5.9158018853        3.9217123037       -2.2323549204
 H        -5.2009964540        2.5292413844       -1.3849606515
 H        -5.3787305690        3.9704784481       -0.4966488968
 H        -8.4476425567        4.6409459004       -1.2745763184
 H        -7.5410136040        4.7007372994        0.2567659338
 H        -8.9808241412        3.6232240585        0.2072406240
 H        -7.8920181905       -1.7691860209       -1.4906082714
 H        -8.2349268723       -2.8293253342       -2.8221198451
 H        -9.2168552524       -2.9648118236       -1.4755674227
 H       -11.6563191504       -1.4746757925       -3.8621296959
 H       -11.2786245681       -2.8351684912       -2.7094905086
 H       -10.3479690114       -2.6807964985       -4.2533223504
 Na      -11.1895599169        2.1201117179       -3.3915542286
