117

 C       -11.6870925275        6.7805272280       -0.6069841949
 C       -11.4237784542        6.2876196700        0.9516783653
 O       -11.1605569444        5.1372776237        0.9333897139
 C       -11.7240502353        7.1585828116        2.2571002419
 C       -12.1245390102        6.1576210912        3.5305117923
 O       -11.4068230894        5.1979960107        3.6522590914
 C       -13.2360283558        6.4199662268        4.4361733415
 C       -13.9187547540        5.2219644012        5.1213891057
 C       -14.5441585814        4.2867252355        4.1555685702
 O       -14.4142947699        4.4857866627        2.9750562419
 C       -15.2417771618        3.0000853423        4.5507299968
 C       -14.1073056723        2.0332378899        4.0340708983
 O       -13.0677802850        2.0496648705        4.6968965440
 C       -14.3848421228        1.2190093399        2.8079126595
 C       -13.0875937045        0.4791184864        2.3012680018
 C       -12.6406531543        0.8941584066        0.7883733585
 O       -12.7581260491        2.0454566747        0.4685099503
 C       -12.4361235469       -0.2586478645       -0.1117792879
 C       -11.1661200912       -0.9534274711        0.2544607210
 O       -11.1534798929       -2.1866809212        0.2899406174
 C        -9.9206638388       -0.1263767014        0.3900187940
 C        -9.6613589954       -0.0147945388        1.9293263513
 C        -9.6246540995        1.5502860008        2.2941664040
 O       -10.4763023067        1.9102654704        3.0654945012
 C        -8.3240618330        2.4111873744        1.9096264268
 C        -8.6431379620        3.2175657010        0.6376936562
 O        -9.6550638986        2.7806937756        0.0437949792
 C        -7.7236095569        4.1738318973       -0.0319138849
 C        -7.5745465972        3.8321068608       -1.5668684454
 C        -6.5058056753        2.7787731172       -1.7843347545
 O        -5.9599073251        2.1394031490       -0.8748114209
 C        -5.7254844162        2.3866575035       -3.1866716500
 C        -5.2223638076        3.6684256818       -3.9850872084
 O        -5.4117526020        4.7689681767       -3.5408866184
 C        -4.4002634756        3.2952859894       -5.1992773943
 C        -4.5844909472        4.2715529835       -6.2777571207
 C        -5.9836724318        4.6564930365       -6.7035761943
 O        -7.0122462688        4.1532136135       -6.2998332382
 C        -6.0325652788        6.0132902030       -7.6896130134
 C        -5.2743435273        7.1127141798       -6.9082760521
 O        -4.8205840395        7.0410611863       -5.7775518187
 C        -5.2549625555        8.5488823531       -7.4811630501
 C        -5.2906946767        5.7712470188       -9.0952942326
 C        -7.5985253450        6.4620088486       -7.8756527341
 C        -4.3403649836        1.7533054867       -2.7984312167
 C        -6.5441564913        1.2319684616       -3.8621108788
 C        -8.0264508631        3.4770217639        3.0069769713
 C        -7.1419758786        1.4829930860        1.8736916698
 C       -13.6806194241       -1.2186629443       -0.0162778865
 C       -12.2933462942        0.1196678439       -1.7444921702
 C       -15.4180890091        2.6258620456        6.0451672955
 C       -16.6008066347        2.7938500067        3.8733460771
 C       -10.3937141639        7.8029194485        2.5871748285
 C       -12.7429955179        8.3472978027        1.9776054145
 H       -10.7388259199        6.7975821352       -1.1574330839
 H       -12.2059209465        7.7384314534       -0.7551096232
 H       -12.2471896479        5.8575847590       -1.0384246211
 H       -13.9696422556        6.9847122659        3.8637131360
 H       -12.7831137742        7.1769366525        5.1418559194
 H       -14.6519801651        5.5446618368        5.7363249997
 H       -13.2307018843        4.8407902934        5.9094993836
 H       -14.8492335551        1.8373328035        1.9854088746
 H       -15.1844487431        0.4691420660        2.9477690351
 H       -13.2934533967       -0.6260842642        2.3200565128
 H       -12.1425256232        0.5576703995        2.9258787469
 H        -9.9668067012        0.8770010504        0.0448391669
 H        -9.1484024466       -0.4815430532       -0.1941357640
 H        -8.7984789275       -0.5873505196        2.1343845593
 H       -10.5814331999       -0.4704262189        2.3850795280
 H        -6.6892228312        4.1684547512        0.5031402354
 H        -8.3964732688        5.0518235393        0.0402368883
 H        -7.3678866557        4.7708559519       -2.1181950015
 H        -8.6045942420        3.3492202697       -1.9033884722
 H        -4.6354131378        2.3211444622       -5.6103524176
 H        -3.4530609603        3.4156837260       -4.7336596126
 H        -4.0129153484        4.0753267815       -7.1533173438
 H        -4.2826975760        5.1885223087       -5.7901439698
 H        -5.1239654221        8.5085557530       -8.5825478688
 H        -4.4711126243        9.1834170427       -7.0205878400
 H        -6.1802477219        8.9892976993       -7.1782193524
 H        -4.7567257195        4.7866482198       -8.9445687405
 H        -4.5601746716        6.5126186696       -9.4146838719
 H        -6.0612865169        5.5538885676       -9.8927065002
 H        -8.0724116662        6.5417591479       -6.8226648651
 H        -8.1424289037        5.7256739391       -8.4051106143
 H        -7.6895538765        7.4489338905       -8.4533629179
 H        -3.6784262402        1.4218328062       -3.5387399168
 H        -4.4056349386        0.9068217886       -2.0614683338
 H        -3.8804135829        2.6212795525       -2.2838422369
 H        -7.5011623939        1.4795470615       -4.3769907332
 H        -6.5386551452        0.3134347332       -3.2482786906
 H        -5.9504806967        0.8032316874       -4.7234913758
 H        -7.4200219458        4.1623547459        2.4873379564
 H        -7.6172354580        2.9769135332        3.9545274255
 H        -9.0008020283        3.9521905057        3.3234981706
 H        -6.8515140176        1.1253991245        0.9204219118
 H        -7.1901520238        0.6126110127        2.5402660283
 H        -6.3613097021        2.1259128305        2.1502989728
 H       -14.5862821159       -0.8663476685       -0.5817758644
 H       -14.1946119609       -1.1291869031        0.9418664370
 H       -13.2941947891       -2.2369774416       -0.2221877060
 H       -11.7314447808       -0.6156199757       -2.3418811001
 H       -12.1425647715        1.1913262072       -1.9514866665
 H       -13.3400082072        0.1061131453       -2.1237465215
 H       -16.4567076414        2.8985748614        6.2944927675
 H       -14.9067382944        3.3964773668        6.6917722045
 H       -15.1952930125        1.6260429338        6.3971328325
 H       -17.3207168971        3.5353171063        4.1129430748
 H       -17.0648547754        1.8415432083        4.0558389356
 H       -16.5088038146        2.8743515264        2.7299581713
 H        -9.5755896171        7.5869503451        1.8634920354
 H       -10.0694367380        7.5292656040        3.6232840616
 H       -10.4784270317        8.8933004051        2.6195904151
 H       -13.0898110289        8.8872368808        2.8029189623
 H       -13.7212804157        7.9985248741        1.6316388334
 H       -12.4349402334        9.0724021867        1.2324894115
 Na      -12.0707470538        3.3567455000        2.3320009406
