117

 C        -9.8553771362       -1.4081732461        0.3766555823
 C       -10.0168419672       -0.5637594610       -0.9489075987
 O       -10.5745263043        0.5555895811       -0.9769593933
 C        -9.6981894242       -1.3172697120       -2.3315368585
 C        -9.2464361364       -0.2679862844       -3.3643938172
 O       -10.1215859647        0.3351782718       -3.9887157751
 C        -7.7034524059        0.0773739920       -3.6605597781
 C        -7.1054187198        1.0016906563       -2.5859258688
 C        -7.8561253843        2.3582659698       -2.2894520853
 O        -8.7567608965        2.7955798948       -2.9916962044
 C        -7.4548499740        3.2295989587       -0.9973564041
 C        -7.4426917988        2.3263763658        0.2796763485
 O        -7.7407531065        1.1473904583        0.2052726672
 C        -7.0424887573        2.8950052795        1.6426276905
 C        -7.6751926083        2.0604674041        2.7575262427
 C        -6.8748866621        2.1818488503        4.0461052942
 O        -5.6370295183        2.1791945407        4.0565224054
 C        -7.6300361110        2.3487373147        5.3982929977
 C        -8.2404920232        3.8433090063        5.4732532034
 O        -9.3989700051        4.0857003144        5.2042562762
 C        -7.2608904964        5.0505654914        5.6263997348
 C        -7.9577401225        6.3759551632        5.2908002839
 C        -8.1680053832        6.5360889107        3.7803959362
 O        -7.8500898038        5.7037187994        2.9389844565
 C        -8.8442699290        7.9631181166        3.2776529151
 C       -10.3829478026        7.9266801398        3.7941465523
 O       -10.5548576658        8.3354645875        4.9035873861
 C       -11.5888087892        7.5834220774        2.7897939247
 C       -11.5654992745        6.2505660080        2.0544492544
 C       -12.1919847877        6.3363606092        0.6591248406
 O       -12.1401974891        7.3845758854        0.0616858767
 C       -13.0386985224        5.1142216965        0.0230251322
 C       -12.2725248428        4.7296114404       -1.2472085473
 O       -11.7924494724        3.6176755826       -1.2511972710
 C       -11.9957644719        5.7919372911       -2.3990083441
 C       -12.9243783225        5.5664001401       -3.6240142655
 C       -12.6226179484        4.3649197393       -4.4983158071
 O       -11.5195072136        3.7705917255       -4.5397129848
 C       -13.8030630811        3.8172057588       -5.3287088921
 C       -14.2668018750        2.5611781208       -4.4626886627
 O       -13.5465573309        1.9873219310       -3.6788009996
 C       -15.7396581040        2.1777338461       -4.6441382205
 C       -14.9272510431        4.8467181281       -5.5666352677
 C       -13.3488945021        3.2354324402       -6.6883536363
 C       -13.2931039291        3.9047411010        0.9860219752
 C       -14.4218855414        5.6402988211       -0.4969499600
 C        -8.0838992534        9.0961406727        4.0151620609
 C        -8.6686696111        8.0334679148        1.7219332187
 C        -8.7683083974        1.3415212316        5.5328712296
 C        -6.6891996614        2.1892765355        6.6123729597
 C        -6.1073417458        3.9515680107       -1.2701588840
 C        -8.6158750285        4.1391161890       -0.6161864914
 C        -8.7087239635       -2.5165547363       -2.2273269407
 C       -11.0510277763       -1.9530059446       -2.6946631150
 H       -10.2271288449       -0.8459901087        1.2455992107
 H        -8.8579142222       -1.5865229117        0.5145661034
 H       -10.3587518373       -2.3908384758        0.3058998512
 H        -7.5638898901        0.5471995930       -4.6059773423
 H        -7.1220972786       -0.8264625792       -3.6785683952
 H        -6.0311304674        1.1813807613       -2.8171732018
 H        -7.2152596046        0.5161433060       -1.5974957820
 H        -7.3265884590        3.8872559463        1.8522561741
 H        -5.9369736210        2.7230110043        1.6934556479
 H        -7.6702929496        0.9850566819        2.5705416654
 H        -8.6737554169        2.3077881889        2.9214155868
 H        -6.3586470351        4.8261011672        4.9772283388
 H        -6.8488348672        5.1630663222        6.6478355984
 H        -7.4214811081        7.2242372561        5.6839830303
 H        -8.9393193820        6.4424149619        5.7034909964
 H       -11.5102420198        8.3574073296        1.9493367575
 H       -12.5581068202        7.7533710854        3.3228151511
 H       -12.2013151995        5.5398895722        2.6635239525
 H       -10.5219721188        5.8787866090        1.9500544964
 H       -10.9287940160        5.6101929925       -2.7755444351
 H       -12.1041411868        6.7881490519       -2.0334627877
 H       -12.9695365129        6.4689595887       -4.2813598745
 H       -13.9410166989        5.4268505489       -3.2433741093
 H       -15.9767956234        1.2127403975       -4.3570356399
 H       -15.9223899381        2.2343054416       -5.7081018328
 H       -16.4300290264        2.9542718900       -4.1670948949
 H       -15.4783660877        5.0566344496       -4.6289947642
 H       -15.6334806488        4.4403008590       -6.2952694264
 H       -14.5566478229        5.7927451335       -6.0245117356
 H       -13.0313465342        4.1181038986       -7.2465227606
 H       -14.1737748545        2.6326744990       -7.1267794232
 H       -12.5089999626        2.5840945890       -6.3828359346
 H       -12.3212243664        3.5434638903        1.4433078978
 H       -13.6061320097        3.0404410174        0.4469423240
 H       -13.9958463566        4.2905566363        1.7584459142
 H       -14.2395005931        6.3338315583       -1.3476122588
 H       -14.9353458800        6.1587246093        0.3211558266
 H       -14.9913673153        4.8256482353       -0.9002759384
 H        -8.3258976325       10.0593173129        3.5599564237
 H        -7.0768192776        8.8872847420        4.0263662539
 H        -8.3417615266        9.2254566287        5.0944549237
 H        -8.9395510832        7.0969569852        1.2691779618
 H        -7.6890971860        8.2722686630        1.3839435554
 H        -9.2428498879        8.8261380664        1.3126733618
 H        -8.4530961460        0.4305956336        5.9748044892
 H        -9.2991073165        1.2387283795        4.6072161132
 H        -9.5891708879        1.5817359511        6.2448180462
 H        -6.7326136016        1.1872047114        7.0033633693
 H        -7.0350164833        2.8762064634        7.4390680111
 H        -5.6658201170        2.4777572267        6.3510476794
 H        -6.2164875605        4.5191938291       -2.1977952957
 H        -5.2143831789        3.3078330602       -1.3942362364
 H        -5.8682541162        4.7472187270       -0.5206831176
 H        -8.3127177684        4.8595240930        0.2134221038
 H        -9.4216239323        3.4755627011       -0.3586679112
 H        -8.9174378215        4.8041158704       -1.4957431881
 H        -7.6666857709       -2.2729162652       -2.0937318668
 H        -8.8626743810       -3.0245654716       -3.1665656334
 H        -9.0317522761       -3.1733693442       -1.4184957707
 H       -11.9308972575       -1.2436288691       -2.5921380170
 H       -11.2169822949       -2.7990126141       -2.0563778513
 H       -11.0303438706       -2.2873368753       -3.7087890323
 Na      -11.1307467285        2.0656483336       -2.8492345149
