117

 C        -9.5327171747       -1.3796966757        0.4627160275
 C        -9.9357896331       -0.6623929743       -0.8297680059
 O       -10.3241373784        0.5206035524       -0.8058364903
 C        -9.6644352579       -1.3163938329       -2.2434356479
 C        -9.2987546758       -0.1704732562       -3.2218655218
 O       -10.1638647016        0.4436657845       -3.8321359644
 C        -7.8088106967        0.1985206776       -3.5412559589
 C        -7.1125049652        1.1718624985       -2.5914537910
 C        -7.9775344026        2.4134116531       -2.2740458531
 O        -8.7793566880        2.8530477397       -3.1009391196
 C        -7.6480091084        3.1966053370       -0.9163761187
 C        -7.7411398241        2.1759995109        0.3169186845
 O        -8.2258985108        1.0705802555        0.2315986503
 C        -6.9135124633        2.4361108109        1.5511600148
 C        -7.6579981406        1.9784989995        2.7936993664
 C        -6.7914659131        2.2479641572        4.0076754349
 O        -5.5505169324        2.1862427091        3.8587712130
 C        -7.6125346149        2.4555029816        5.4102115347
 C        -8.2340031662        3.8600882874        5.1821377540
 O        -9.3721050957        3.9255510950        4.7766768789
 C        -7.4601219609        5.0959420561        5.5816886159
 C        -8.0160360181        6.4357618830        5.2351580355
 C        -8.1486142824        6.6723773583        3.7001145400
 O        -7.9014588192        5.8063250435        2.8839536370
 C        -8.8658480871        8.0132126822        3.1811116676
 C       -10.3994810517        8.1103602496        3.6780602736
 O       -10.6041631543        8.4280897032        4.8129192635
 C       -11.4458342676        7.8290796946        2.6230661565
 C       -11.6033488831        6.3724800670        2.0698674516
 C       -12.1711567424        6.4762349842        0.6341168197
 O       -11.8393659776        7.3481113057       -0.1203185539
 C       -13.0614718793        5.3324803887        0.1022476966
 C       -12.3416854514        4.7356577587       -1.1843262734
 O       -11.9184379870        3.5712205052       -1.1568984573
 C       -11.9956216380        5.5640810975       -2.4772625809
 C       -13.0171372903        5.5412645188       -3.5967016786
 C       -12.7744826183        4.2412200631       -4.4233281103
 O       -11.6646411841        3.6859808644       -4.3701378467
 C       -13.8519132861        3.5108036172       -5.2412735114
 C       -14.2743654702        2.2578064868       -4.3556538045
 O       -13.4018861581        1.5072375700       -3.9734429750
 C       -15.7112324697        1.9853451044       -4.1323378293
 C       -15.0442355988        4.4314835313       -5.5489036102
 C       -13.1747073882        3.0270767546       -6.5572895160
 C       -13.1948869761        4.1516184015        1.0555460601
 C       -14.4611456324        5.9777586718       -0.2305968581
 C        -8.2582408032        9.3022184068        3.7832341720
 C        -8.7636355008        8.0494395335        1.6192905105
 C        -8.7108079862        1.4192140912        5.5633300215
 C        -6.5419686202        2.3686478077        6.5010309942
 C        -6.1713975180        3.5926224335       -1.0090253584
 C        -8.6346225534        4.4512554857       -0.7742285103
 C        -8.5930775172       -2.4490880063       -2.2688958959
 C       -11.0471625079       -1.7998673553       -2.7159398353
 H       -10.0895667896       -0.8010394738        1.2976848351
 H        -8.4664248227       -1.1749709097        0.5794266018
 H        -9.7191087615       -2.5018401808        0.5319332606
 H        -7.8521904773        0.5876837111       -4.5945694401
 H        -7.1456481750       -0.7002693984       -3.5732788596
 H        -6.1768487694        1.4934005901       -2.9950549640
 H        -6.9063782805        0.6467228431       -1.6516166075
 H        -6.6739065688        3.5021165680        1.7635230090
 H        -5.9603164375        1.8594065915        1.4246098644
 H        -8.0042881077        0.8931817292        2.6657988380
 H        -8.5520776071        2.5334922128        2.9767342271
 H        -6.4186648537        5.0502250631        5.2811915188
 H        -7.4889050036        5.0247287033        6.6472569490
 H        -7.3974490147        7.3181020060        5.6717031616
 H        -8.9729433736        6.6562101106        5.6331653517
 H       -11.2821863306        8.4634781658        1.7486064546
 H       -12.3470924437        8.1777902811        2.9777725056
 H       -12.3396076224        5.9448619962        2.7884400200
 H       -10.7884579200        5.6966126901        2.0047725691
 H       -11.1763125785        5.0713667111       -2.9474095985
 H       -11.6923447525        6.5610390373       -2.2207959660
 H       -12.9047824190        6.3970251266       -4.2962787657
 H       -14.0410824857        5.5654168517       -3.1864782115
 H       -15.8065310116        1.1766777992       -3.4714825284
 H       -16.1355370208        1.6669999866       -5.0627189746
 H       -16.3479873751        2.8752294908       -3.7311790413
 H       -15.5257707473        4.7645199455       -4.6422219883
 H       -15.7759636045        3.8930397169       -6.1567467731
 H       -14.6944053829        5.2058061972       -6.1713392849
 H       -12.7218129892        3.9108910278       -6.9074098070
 H       -14.0077086444        2.7626793034       -7.1363641150
 H       -12.5054424885        2.1901702746       -6.3995353231
 H       -12.2511206533        3.7332680092        1.3507716826
 H       -13.7454228367        3.3797276892        0.5545991841
 H       -13.7876939501        4.4959259300        1.8632859281
 H       -14.3133692730        6.9902942932       -0.6807437191
 H       -14.9991456038        6.1977321044        0.7227603037
 H       -14.9644858296        5.3427611072       -0.8795778335
 H        -8.8512510322       10.1445946533        3.4030353618
 H        -7.2386702555        9.4122868442        3.5370741834
 H        -8.2479707097        9.3342792618        4.8987622386
 H        -9.3489741870        7.2738877918        1.0738123106
 H        -7.7374174763        7.7030255244        1.3177017823
 H        -8.9665150882        9.0552114882        1.1719408236
 H        -8.4485433394        0.4298485815        5.2282814345
 H        -9.6482841857        1.7963699050        5.1703468215
 H        -8.8536564481        1.1873048809        6.6883922024
 H        -6.8888643882        2.0050447612        7.4270112396
 H        -6.0702380024        3.3853909413        6.7230009070
 H        -5.6976192396        1.8115147546        6.1473200474
 H        -5.9356230872        4.2608622379       -1.7785304807
 H        -5.6040422594        2.7114145860       -1.2182283818
 H        -5.8576231145        4.1749882711       -0.1266310188
 H        -8.8887280337        4.7450241839        0.2328606744
 H        -9.5255251707        4.1615011483       -1.2213316910
 H        -8.2204227348        5.3413412986       -1.3101928813
 H        -7.7097821090       -2.0898639765       -1.7101654052
 H        -8.1602671973       -2.6733604898       -3.2942738679
 H        -9.0773741063       -3.2831458307       -1.8351281462
 H       -11.6804840397       -0.8354569380       -2.8350799437
 H       -11.5630564571       -2.4231704470       -2.0088442219
 H       -10.9308588405       -2.4261695539       -3.6315080253
 Na      -10.8736937723        2.1195664397       -2.7821489844
