117

 C        -9.7021436902       -1.4435886094        0.2993677268
 C        -9.9631403227       -0.5766785345       -0.9075477640
 O       -10.4000176031        0.5422102447       -0.7889054982
 C        -9.6975294970       -1.3483544121       -2.2777920872
 C        -9.2336713714       -0.2496695889       -3.3184642297
 O       -10.0658825827        0.3619616037       -3.9537743377
 C        -7.7806076489        0.0867643311       -3.5479862649
 C        -7.2201190524        1.0467304876       -2.4414626986
 C        -7.9470395622        2.3730052603       -2.2191216666
 O        -8.7188788264        2.8431514244       -3.0075916929
 C        -7.5526865531        3.2090847483       -0.9476660490
 C        -7.4410725970        2.1920476912        0.2611855397
 O        -7.9664160015        1.0926234683        0.1095876608
 C        -7.0061338168        2.7472981250        1.5684194259
 C        -7.6751542850        1.9790896626        2.7240293859
 C        -6.8786463829        2.1663131410        4.0091009221
 O        -5.7070292097        2.1633238648        3.9732770167
 C        -7.6525011999        2.4481002147        5.3785999019
 C        -8.2139929220        3.8503380894        5.2741600899
 O        -9.4091188544        4.0288756894        5.1168245125
 C        -7.3316848743        5.0966502164        5.6157843535
 C        -7.9242483878        6.4765540508        5.2715952584
 C        -8.2056863724        6.6225008227        3.7665805120
 O        -7.8353583344        5.7680749174        2.9834611914
 C        -8.8407246783        7.9424181672        3.2374649767
 C       -10.3440646754        7.9929264792        3.6827127853
 O       -10.6419538694        8.3911602466        4.8068485380
 C       -11.5809344007        7.6083159925        2.7961089218
 C       -11.6314552832        6.2687850432        2.0884116506
 C       -12.2376142405        6.4469708927        0.7076573675
 O       -11.9573680264        7.3817589021       -0.0284733856
 C       -13.0149546424        5.2130055539        0.0187330776
 C       -12.1931301094        4.7023949305       -1.2498717071
 O       -11.8208142272        3.5738930414       -1.3057637673
 C       -12.0277337642        5.6811308688       -2.3439084882
 C       -12.9298311280        5.5342895821       -3.6243775583
 C       -12.6534559754        4.2909717579       -4.4424863937
 O       -11.5810709176        3.7240711953       -4.5204528292
 C       -13.8486784940        3.7218974524       -5.3028733230
 C       -14.3364176767        2.4931043985       -4.4364485731
 O       -13.5345274318        1.8443053886       -3.7685537159
 C       -15.8250363827        2.0738400688       -4.4030522671
 C       -14.9921441600        4.7116562783       -5.5989863300
 C       -13.2158364137        3.2875737423       -6.7403382259
 C       -13.2646488051        4.0197677763        0.9471522317
 C       -14.4569238653        5.6133774784       -0.5116488875
 C        -8.1432660321        9.0946231750        3.9254038212
 C        -8.6094171422        8.0529062691        1.7223318915
 C        -8.7738735454        1.3099526863        5.4950555499
 C        -6.5447866767        2.2435714531        6.5019332411
 C        -6.1505877909        3.9102584806       -1.2534157807
 C        -8.6097351553        4.2732825782       -0.5714005102
 C        -8.6901666071       -2.5693580553       -2.1218289810
 C       -11.0469760046       -1.8868083016       -2.7002368322
 H       -10.1214429644       -1.0844357320        1.1328727697
 H        -8.6334454371       -1.5175094384        0.4173726008
 H       -10.0572165431       -2.4400499667        0.0704405921
 H        -7.6704511599        0.6494065130       -4.4648703241
 H        -7.1435427593       -0.7924967647       -3.6418974644
 H        -6.2122805392        1.3454898859       -2.8484808213
 H        -7.0867031781        0.5827033435       -1.4684948571
 H        -7.3337844693        3.7619213960        1.6528832351
 H        -5.9249990137        2.6830034609        1.6699684602
 H        -7.6246219661        0.9214243931        2.5460667788
 H        -8.7762612444        2.1841231483        2.8481169269
 H        -6.3246681832        4.9679802789        5.1742546537
 H        -7.1574599537        5.0838445106        6.7308802767
 H        -7.3284691957        7.2624074188        5.6318670318
 H        -8.9484895100        6.6733933962        5.7430324790
 H       -11.8013515400        8.3682365646        2.0093685381
 H       -12.4377477256        7.6533059404        3.5664515715
 H       -12.1844286252        5.5991935747        2.7212658111
 H       -10.6282338322        5.8271294623        1.8074159548
 H       -10.9593095420        5.6800508039       -2.7370812876
 H       -12.2467177763        6.6498920136       -1.8504802230
 H       -12.8392412468        6.3889991560       -4.2677620880
 H       -13.9586794191        5.4785560921       -3.3238525341
 H       -15.8398442199        1.1101377604       -3.8346606313
 H       -16.2743321283        1.8460859046       -5.4128610176
 H       -16.4280438745        2.7885019240       -3.9258581205
 H       -15.7203457785        4.8505414069       -4.8034153290
 H       -15.4896570588        4.4604947850       -6.5114598222
 H       -14.4715241457        5.6644360788       -5.8606918341
 H       -12.6222398250        4.1618952317       -6.9986724496
 H       -14.0307617381        3.0283168632       -7.4427539769
 H       -12.6139235283        2.4378066116       -6.5224458181
 H       -12.2779109299        3.6369799141        1.2525603722
 H       -13.6404171080        3.1751048664        0.3913080551
 H       -13.8834588634        4.3453894956        1.8024050462
 H       -14.4847018817        6.1341729692       -1.4475308839
 H       -14.8129974686        6.2489977628        0.2408467487
 H       -15.0981282042        4.6959927999       -0.6205148615
 H        -8.6864462208       10.0408987801        3.7657598535
 H        -7.0745978923        9.1247026634        3.6126731729
 H        -8.0426855386        8.9792781942        4.9987735309
 H        -8.9378129869        7.2580209548        1.0837543471
 H        -7.5719454739        8.1595574406        1.5011350379
 H        -9.0235686085        8.9981965753        1.4402550422
 H        -8.3567320035        0.3551871375        5.7505718691
 H        -9.4043818998        1.3503117783        4.6259065431
 H        -9.4281513638        1.4037200822        6.2768569683
 H        -6.8942760686        1.3461083578        7.0381214017
 H        -6.4605699931        3.0041309644        7.2002334295
 H        -5.5583303474        2.0745301364        6.0723129574
 H        -6.1817515911        4.4029365356       -2.2601733614
 H        -5.2815629925        3.2318351742       -1.2873884936
 H        -5.9658930844        4.7555618414       -0.6193808216
 H        -8.4687356222        4.5528978712        0.4764436102
 H        -9.6289358152        3.8934830644       -0.7480837103
 H        -8.4215548805        5.1701938705       -1.0756774421
 H        -7.7712594129       -2.3285038903       -1.5701382630
 H        -8.4190819854       -2.8657302810       -3.1045362329
 H        -9.2646756682       -3.4140095295       -1.6097464744
 H       -11.8074794009       -1.2211959459       -2.4474224614
 H       -11.2168770104       -2.8007335885       -2.1463997910
 H       -11.0769363045       -2.1222356609       -3.6972843442
 Na      -11.0526251660        2.2697634661       -2.7129182717
