117

 C       -10.6086933427       -1.8186909935       -0.0763856700
 C       -10.5569918521       -0.9399455715       -1.3288226006
 O       -11.2482735285        0.0327821848       -1.4473452693
 C        -9.6462028245       -1.3844907656       -2.6429256981
 C        -9.4088630504       -0.0862785415       -3.5589374038
 O       -10.3027795878        0.3449933373       -4.2910285377
 C        -8.0249051172        0.6237641744       -3.7822540726
 C        -7.1580438770        1.3058421395       -2.7590889096
 C        -7.8442895756        2.3816367909       -1.8398378787
 O        -9.0465294754        2.5813526971       -1.9281601136
 C        -6.9134988156        3.1250249709       -0.8333528235
 C        -6.9306455434        2.3091141378        0.5435375030
 O        -7.0388246558        1.1112758293        0.5313311574
 C        -6.7632706610        3.0770123875        1.8456420170
 C        -7.0956478171        2.2368587814        2.9984123971
 C        -6.4905133363        2.5700256910        4.3122217919
 O        -5.3061913161        2.9156307993        4.4039001903
 C        -7.3612792434        2.7028329484        5.5457656703
 C        -8.2907201796        3.9834258031        5.2610540304
 O        -9.4103193646        3.8318540062        4.8300248310
 C        -7.5047191548        5.3993716330        5.3251727741
 C        -8.5249833838        6.5019523628        4.8453085639
 C        -8.2943565497        6.9692235846        3.3911620721
 O        -7.8292224200        6.1786328000        2.5810077707
 C        -8.6919915234        8.4039350378        2.8188528454
 C       -10.2722501084        8.6723191371        3.1715269692
 O       -10.6102361291        8.9524799152        4.2839159508
 C       -11.2867965637        8.6687922169        2.0552885514
 C       -11.9675043962        7.2843700125        1.8907852955
 C       -11.9694583599        6.6259669022        0.4780164739
 O       -11.0960398299        6.7834290646       -0.3214224904
 C       -13.1372040504        5.5896803184        0.1394613682
 C       -12.6770766280        4.8717495143       -1.1387150414
 O       -12.1861494156        3.7173976282       -1.0444623039
 C       -12.8112865006        5.5211660001       -2.5219899574
 C       -13.8144785172        4.6703209047       -3.3728546417
 C       -13.1427188239        3.6819145871       -4.3351978999
 O       -11.9699814486        3.7869677189       -4.5331754672
 C       -14.0847443840        2.4777927154       -4.9166531432
 C       -14.5383764327        1.6557631559       -3.7267758203
 O       -13.8795314041        1.5988192117       -2.6882831142
 C       -15.7461690098        0.8180793332       -3.9349513989
 C       -15.3166603398        2.9924377688       -5.6666344375
 C       -13.1129792286        1.6790585115       -5.9342602681
 C       -13.2392821266        4.5354357477        1.3218669941
 C       -14.5065395462        6.3964255209       -0.0447534762
 C        -7.9506929994        9.5870003767        3.5449932147
 C        -8.3445375419        8.3796988307        1.3045307844
 C        -8.4253695411        1.5057807787        5.7179561533
 C        -6.4361097483        2.8522035402        6.7789469967
 C        -5.4608046343        3.1596762372       -1.2126581449
 C        -7.3944377349        4.6137610840       -0.6751310748
 C        -8.3194931367       -2.0533825559       -2.2046882719
 C       -10.5738346367       -2.3609004277       -3.4730341353
 H       -11.6743543403       -2.1284045288        0.2127518042
 H       -10.1170179248       -1.2933299530        0.7660825386
 H        -9.9997255918       -2.7693502530       -0.3058793809
 H        -8.3722718031        1.3008706608       -4.5857425526
 H        -7.3687383498       -0.1483144534       -4.2244299120
 H        -6.3726018949        1.8588973617       -3.2906958037
 H        -6.6219272413        0.5970929971       -2.1496901051
 H        -7.4157823780        4.0001899138        1.7763718862
 H        -5.7490243525        3.5060413347        1.9538613904
 H        -6.8050644679        1.2478578635        2.7516964525
 H        -8.2256717793        2.1891831523        3.1388803610
 H        -6.5702044714        5.3433976178        4.8246514113
 H        -7.3130607119        5.6367342744        6.3718434136
 H        -8.4416564735        7.3992907059        5.4085674681
 H        -9.5508213762        6.1602947235        4.9270937353
 H       -10.8589392262        8.8074689754        1.0898331222
 H       -12.0128109768        9.4556581019        2.2636589418
 H       -12.9488349250        7.3290047950        2.2962254204
 H       -11.4994306213        6.5417555790        2.5622190396
 H       -11.9146882936        5.6197213900       -3.0074204972
 H       -13.2300761881        6.5470769876       -2.4345163813
 H       -14.4701672332        5.3498087020       -3.9392398951
 H       -14.5188943366        4.2183769439       -2.6416450266
 H       -15.9229127870        0.2274185948       -3.0781121355
 H       -15.6603803334        0.1657980976       -4.7877161026
 H       -16.7192022673        1.3908718057       -4.1540528701
 H       -16.1038000430        3.1900124970       -4.9119352084
 H       -15.6878952196        2.2014431600       -6.3603007156
 H       -15.1893061419        3.9089011706       -6.1867574035
 H       -13.2600060404        2.1512248872       -6.8861753959
 H       -13.4538486097        0.6886324758       -6.0458346991
 H       -12.0918835313        1.7895501156       -5.5481501898
 H       -12.5113908536        3.7702013791        1.3468364473
 H       -14.2186597793        4.0170881841        1.2347518057
 H       -13.1827557138        5.0489133142        2.2407594224
 H       -14.3793267053        7.2291591390       -0.6986041890
 H       -14.9945468360        6.6267203544        0.9106003921
 H       -15.2137654728        5.7932835022       -0.6158704223
 H        -8.0281952381       10.4823668831        2.9226258851
 H        -6.8589248547        9.3911003696        3.7577659786
 H        -8.4810959883        9.8662911639        4.4663888246
 H        -8.8657256195        7.5127761470        0.9024295886
 H        -7.2431098676        8.2639415870        1.2349110693
 H        -8.6126804002        9.3436689539        0.8181040449
 H        -8.1342263258        0.8067406649        4.9490048466
 H        -9.4207137237        1.8145503602        5.4450823743
 H        -8.4333436335        1.0697151928        6.7355363915
 H        -6.4722241526        2.0176854456        7.4531246985
 H        -6.6565092079        3.7393637993        7.3784281326
 H        -5.4103867669        2.9154744343        6.4553654475
 H        -5.3737608105        3.7347618525       -2.1447722941
 H        -5.0173367500        2.1710329696       -1.2330006022
 H        -4.9088579631        3.6687011355       -0.4074628019
 H        -6.6811113598        5.2208992219       -0.1898493101
 H        -8.2558005475        4.6023370655       -0.0883522828
 H        -7.6465571443        5.1793807025       -1.5678140399
 H        -7.6467160581       -1.3940904931       -1.6173561060
 H        -7.8624472475       -2.4988695357       -3.1355791525
 H        -8.4802265091       -2.8224638854       -1.5006788344
 H       -11.4807481984       -1.8185226520       -3.9431543916
 H       -10.8272724046       -3.1731398129       -2.8528378649
 H       -10.0323824464       -2.7710414708       -4.3626983980
 Na      -11.3577793834        2.0047976273       -2.5773875815
