117

 C       -10.6159152902       -1.5411879841       -0.0860153175
 C       -10.5206935045       -0.8978496591       -1.4425641296
 O       -11.2969892903        0.0513264188       -1.5438889218
 C        -9.6323952083       -1.3574487953       -2.6290167861
 C        -9.3421323290       -0.0938864305       -3.5450009066
 O       -10.2754518338        0.2907645402       -4.2509509266
 C        -7.9183835154        0.5434279692       -3.7708480162
 C        -7.1365555548        1.3086270055       -2.7088860658
 C        -7.8974848254        2.3690246850       -1.8319800774
 O        -9.1209768102        2.5483940572       -1.9740829543
 C        -6.9852293832        3.1093255387       -0.8168754244
 C        -7.0913890822        2.3464075280        0.5003553698
 O        -7.1454719349        1.1381959921        0.4479909423
 C        -6.8817005588        3.0902250002        1.8001137109
 C        -7.2149039700        2.2122627879        2.9863928886
 C        -6.4749012769        2.6006627626        4.2630848307
 O        -5.2458684679        2.7138528469        4.2913721936
 C        -7.3711436331        2.6806156578        5.5828250668
 C        -8.2332457391        3.9499472157        5.2393584903
 O        -9.3480950268        3.8542613110        4.7554130330
 C        -7.6092575894        5.3546494998        5.3239065175
 C        -8.4317945868        6.5717363183        4.9327199556
 C        -8.2637786244        6.9290861472        3.4130345639
 O        -7.8066775329        6.1519610162        2.6248296755
 C        -8.7461198815        8.4015281835        2.8821759138
 C       -10.2807486678        8.6776679161        3.1994118483
 O       -10.6326281770        8.9154237157        4.3500266208
 C       -11.2931123945        8.5940797683        2.0080344718
 C       -11.9945047478        7.2334820252        2.0243972103
 C       -11.9702518646        6.6391745183        0.5945873304
 O       -11.1122205556        6.9767400403       -0.1975826767
 C       -13.1141253302        5.6644462559        0.1929079233
 C       -12.6663570244        4.8868048785       -1.0619235739
 O       -12.2599997281        3.7398285164       -1.0215513909
 C       -12.7457269205        5.5679225725       -2.4507101297
 C       -13.7233116725        4.8397648205       -3.4144523913
 C       -13.0582771510        3.7260146370       -4.3179897975
 O       -11.8477341230        3.7243654071       -4.5285134986
 C       -13.9890176184        2.6642612032       -4.9134654164
 C       -14.3681253872        1.5696097557       -3.7972445112
 O       -13.6631643024        1.3618730625       -2.8229497239
 C       -15.7494294205        0.8237385744       -3.8830438038
 C       -15.2856443555        3.1480162567       -5.5883728001
 C       -13.1025495744        1.7583037941       -5.9450197953
 C       -13.3539077462        4.5698230955        1.3068441277
 C       -14.4315556867        6.3524771608       -0.0625902450
 C        -7.9286616960        9.5907939673        3.5234301465
 C        -8.4645186750        8.3825636485        1.3894406281
 C        -8.3193803598        1.3869616476        5.6044827163
 C        -6.5716032268        2.7547336856        6.8354377984
 C        -5.4721124872        3.1794297667       -1.2506480346
 C        -7.4950886224        4.5801434123       -0.5904684250
 C        -8.3580109042       -2.0971197435       -2.3066371285
 C       -10.5882797574       -2.4013065105       -3.2944379553
 H       -11.6940132681       -1.7458575528        0.2173642613
 H       -10.1523141095       -0.7757478661        0.6168768300
 H       -10.0726534541       -2.4181277333        0.0051383638
 H        -8.1523077256        1.1444959896       -4.6743803611
 H        -7.2498829964       -0.3107167717       -4.0835280170
 H        -6.3733808768        1.8937941814       -3.2436805610
 H        -6.5338089429        0.6785358462       -2.0658765344
 H        -7.4796202150        3.9786858784        1.7765192080
 H        -5.8512573303        3.5087269919        1.8702889806
 H        -6.8515390370        1.1948073464        2.7694037866
 H        -8.3339957187        2.1010055887        3.1604752748
 H        -6.7726634409        5.3009712094        4.6157728894
 H        -7.1911912046        5.5509195636        6.2976444765
 H        -8.1224132983        7.4234639351        5.4710767617
 H        -9.5781483769        6.5230571415        5.0609614949
 H       -10.9444046066        8.7356120586        1.0307299258
 H       -12.0269964924        9.3915857586        2.2070392521
 H       -12.9976288639        7.3597397191        2.4012952568
 H       -11.6158609197        6.5383819806        2.7573136519
 H       -11.7781386749        5.4790845385       -2.9221988786
 H       -12.9193768820        6.6263358552       -2.3957200141
 H       -14.2514382344        5.5373260420       -4.0576258982
 H       -14.4962152171        4.4276991278       -2.8016519676
 H       -15.9048517656        0.1553950790       -2.9777421128
 H       -15.8313769046        0.1709027000       -4.8059072791
 H       -16.5981245594        1.4284644876       -3.9595470619
 H       -15.8916495334        3.9140095306       -5.0923877238
 H       -15.8384965107        2.2477867848       -5.8289331728
 H       -14.9590344132        3.5733316655       -6.5749950465
 H       -13.0022043082        2.1942793259       -6.9468144964
 H       -13.7098948590        0.8423200698       -6.0599562473
 H       -12.1782236513        1.6026944365       -5.4131593829
 H       -12.5845751742        3.8083055983        1.3711993030
 H       -14.3008441441        4.0905118517        1.0122819432
 H       -13.4409880802        5.0133284215        2.3155129080
 H       -14.4020508790        7.3200223207       -0.4941405507
 H       -15.0083913994        6.2679822219        0.8148910986
 H       -15.0160639995        5.7322368080       -0.8134894217
 H        -8.0118763496       10.5138270159        2.9104278403
 H        -6.8079200186        9.3338536592        3.6214903147
 H        -8.3456603953        9.8592410657        4.4738147683
 H        -8.8866992845        7.4730234399        0.9986425133
 H        -7.4058420800        8.4251813001        1.3235546606
 H        -8.8520365211        9.2411441066        0.8785143894
 H        -7.9256218844        0.6473740300        4.9050123627
 H        -9.2722337313        1.6679707158        5.1303706653
 H        -8.5035977680        1.0606450783        6.5619015154
 H        -6.8134526890        1.9335831835        7.5435073696
 H        -6.5800976331        3.6399186637        7.3559191682
 H        -5.5385705764        2.5197669090        6.5548442929
 H        -5.4474506527        3.3411194172       -2.3687527327
 H        -4.9380789643        2.2778662505       -0.9178107673
 H        -4.9554532757        3.9742231278       -0.7474702420
 H        -6.8486595713        5.1511689247        0.0532405434
 H        -8.5350263807        4.7035692595       -0.2237837870
 H        -7.4948149917        5.0628353699       -1.5100656689
 H        -7.7930802389       -1.5841562155       -1.5404374529
 H        -7.8446196545       -2.2862029485       -3.2202112308
 H        -8.5664226874       -3.0642640988       -1.7708933454
 H       -11.3719596087       -1.9052864620       -3.7509754529
 H       -10.9061947469       -3.0949781007       -2.5675202430
 H       -10.0739986492       -2.9123151826       -4.0984489547
 Na      -11.4321896886        2.0006007733       -2.7310887259
