117

 C       -10.8824622599       -2.5290849661       -0.7435131855
 C       -10.4785993468       -1.2594287260       -1.4104935042
 O       -10.8952465792       -0.2328155766       -0.9799228017
 C        -9.6423453939       -1.4165077478       -2.8145010788
 C        -9.5501530919       -0.1047367292       -3.5611076636
 O       -10.5254522602        0.2628730432       -4.1588909824
 C        -8.2077714668        0.6785672890       -3.7156292399
 C        -7.4902646232        1.1082259985       -2.4162116285
 C        -7.9435646135        2.4425489725       -1.7152014171
 O        -9.1161076449        2.7542337496       -1.6262369848
 C        -6.9176942688        3.3081716733       -0.8468414614
 C        -6.8214821116        2.4426465683        0.6278976472
 O        -7.1590994317        1.3033788451        0.6628331729
 C        -6.5640496376        3.3049920602        1.8735381079
 C        -6.6370220638        2.5023088197        3.1545826519
 C        -6.3552752950        3.3342982910        4.3737183622
 O        -5.5234305025        4.2226044560        4.2724018307
 C        -7.2557585858        3.2732009131        5.6738356351
 C        -8.3430654977        4.3081517076        5.3713161628
 O        -9.4404920516        4.0281380995        4.9850287570
 C        -7.9873634680        5.8489053281        5.4440539318
 C        -9.0477766247        6.7064261503        4.6357124430
 C        -8.4133203021        6.9055297656        3.2662798258
 O        -8.1027475041        5.9292847659        2.6028574813
 C        -8.3983046026        8.2867275232        2.5559495395
 C        -9.8534055872        8.9534126820        2.3501710100
 O       -10.2132491018        9.8008248021        3.1159803088
 C       -10.6899944617        8.5614982476        1.1590156900
 C       -11.2694926593        7.0464168150        1.2612380356
 C       -12.0807122182        6.7169693842        0.0071449416
 O       -11.7909398547        7.3339931775       -0.9855827127
 C       -13.1815704474        5.5744410585        0.1097291524
 C       -13.0684720604        4.6310067612       -1.1434206930
 O       -13.0058739588        3.4008521532       -0.9588661887
 C       -12.9144479094        5.2710374714       -2.5065654625
 C       -13.9315702155        4.5398826244       -3.4930373405
 C       -13.2597795658        3.2509725363       -4.0404336748
 O       -12.1013439971        3.0656654055       -3.8430671441
 C       -14.1735277336        2.0446484566       -4.5139036766
 C       -14.2722457180        0.9838930358       -3.3938628655
 O       -13.3057970339        0.7174515823       -2.7381950505
 C       -15.6398041395        0.3658225641       -3.0021488838
 C       -15.5372657816        2.5801852702       -5.0789586899
 C       -13.3470013955        1.3435280164       -5.6344347382
 C       -13.0301909634        4.7916725065        1.4020290517
 C       -14.5849657683        6.2617919270        0.1760659647
 C        -7.7185058598        9.2770887741        3.5123246234
 C        -7.6037208811        8.2343684433        1.2332471062
 C        -7.8064511831        1.8518231306        5.9466313376
 C        -6.4963423421        3.6926736665        6.9776049910
 C        -5.4748394434        3.3758883989       -1.5065349404
 C        -7.5031833401        4.7745720333       -0.7150731458
 C        -8.3498225809       -2.1754780709       -2.5571961159
 C       -10.5224409056       -2.3080914724       -3.7446883508
 H       -10.7837396941       -3.3456155148       -1.4570099440
 H       -11.9061069806       -2.4351209424       -0.3168939857
 H       -10.2207616544       -2.8526335406        0.1938126335
 H        -8.5476833831        1.4939372951       -4.3610138274
 H        -7.4699034299        0.1191791386       -4.3164173573
 H        -6.4247865538        1.2731373338       -2.5764133811
 H        -7.6912108679        0.3588055290       -1.6301537232
 H        -7.2839954068        4.1322310952        1.9248558354
 H        -5.5279093623        3.7461236239        1.7047090818
 H        -6.0576642503        1.6049500885        3.1138405905
 H        -7.7089397465        2.2654637380        3.2151659516
 H        -6.9494581196        5.9167564955        5.0961764451
 H        -7.9298458864        6.2258336829        6.4432768398
 H        -9.3001369559        7.6307302224        4.9858584083
 H        -9.8893123025        6.0988521827        4.3849959096
 H       -10.1134825265        8.6060838229        0.2661365753
 H       -11.5927631888        9.2013590770        1.0577147190
 H       -11.9178301737        7.0442902121        2.1523885147
 H       -10.4703800875        6.3568456951        1.3389052424
 H       -11.8973861130        5.0571047974       -2.8147858383
 H       -13.0814053017        6.3365379269       -2.3980979674
 H       -14.2658985723        5.2026281820       -4.3129192700
 H       -14.8297849565        4.3166338187       -2.9099508442
 H       -15.6487711135       -0.2782932733       -2.1592166054
 H       -16.1186896384       -0.2317663920       -3.7877976525
 H       -16.3658869540        1.1815634113       -2.7820790324
 H       -15.6425874757        2.5416449305       -6.1540900872
 H       -15.9294465843        3.5430851645       -4.7651186013
 H       -16.3012694898        1.8057476181       -4.8640657549
 H       -13.1559517373        1.9582656968       -6.5255999277
 H       -13.7874121217        0.3552530731       -5.8704952493
 H       -12.3958716104        1.1147065486       -5.1279619208
 H       -11.9958107103        4.6199679440        1.5490168501
 H       -13.5488360062        3.8027013652        1.4828552646
 H       -13.3599685210        5.3475900574        2.2854191275
 H       -14.7972992700        6.7128715484       -0.7603304777
 H       -14.6276220499        7.0413815803        0.8939492871
 H       -15.3530354298        5.5000101873        0.5292076245
 H        -7.5813782943       10.2847027563        3.1012276516
 H        -6.6341676852        8.9381492398        3.7272522513
 H        -8.2823816972        9.3194865550        4.4193894839
 H        -7.9543859289        7.4781696372        0.5523838704
 H        -6.5763434205        8.1952450342        1.5345869964
 H        -7.7222628329        9.2033794237        0.7683513774
 H        -7.0338724723        1.1117528007        5.6619704177
 H        -8.6942559623        1.7279647142        5.3132928445
 H        -8.0415880472        1.7399326242        6.9636785316
 H        -5.6538080003        3.0005973426        7.2233272601
 H        -7.2527774875        3.6523937752        7.6805945232
 H        -6.1332803283        4.7154056588        6.9295813217
 H        -5.6656207116        3.5194143977       -2.6164021884
 H        -4.9028146218        2.4426618357       -1.3779515674
 H        -4.9624995329        4.2227945820       -1.0731152633
 H        -6.9940923742        5.3462634107       -0.0129392918
 H        -8.4816543022        4.7601499420       -0.3136874316
 H        -7.5750547906        5.2355666466       -1.6545167238
 H        -7.7241319402       -1.8500347670       -1.7048536281
 H        -7.6692307272       -2.0020448805       -3.3822661670
 H        -8.5061554904       -3.2843448453       -2.4816810208
 H       -11.5769248663       -1.8920555351       -3.8925423384
 H       -10.7509625877       -3.2299479632       -3.2947996997
 H       -10.0220537797       -2.4505398025       -4.7278089539
 Na      -11.3944764223        1.8133628948       -2.1812296405
