117

 C       -10.9524660302       -2.4773850080       -0.7394718785
 C       -10.4799341018       -1.1763249229       -1.4418677124
 O       -10.7663638672       -0.0678778258       -0.9975244357
 C        -9.5687309979       -1.3217483704       -2.6916962499
 C        -9.5809147251        0.0687057572       -3.3812187441
 O       -10.6555702240        0.4626001056       -3.7810463212
 C        -8.3200952286        0.8187987394       -3.7746924937
 C        -7.4141215396        1.3126859366       -2.6205587742
 C        -7.8751768175        2.5526681634       -1.7464327246
 O        -9.0141806072        3.0354701222       -1.7521027041
 C        -6.7748380755        3.1028097013       -0.7792349874
 C        -6.7479648755        2.2698926585        0.6131338298
 O        -6.7322217619        1.0690517969        0.5880716131
 C        -6.4679674878        3.0574651067        1.8877162276
 C        -6.8263273114        2.2165829399        3.1281056391
 C        -6.4991102887        3.1085238947        4.3370717892
 O        -5.5266808233        3.8208031380        4.1516424018
 C        -7.2976317886        3.1366450801        5.6615297758
 C        -8.4664652295        4.2489508035        5.3607667854
 O        -9.6111529884        3.8839365473        5.2446756250
 C        -8.0868589615        5.7604140503        5.4236159006
 C        -8.9870197395        6.6645872594        4.5341720052
 C        -8.3140220676        6.9369767309        3.1527242498
 O        -7.9657817897        6.0577923350        2.4241446767
 C        -8.4092742014        8.4926185275        2.5504229718
 C        -9.9310075020        8.6736892916        2.6642173189
 O       -10.3678081283        9.0168276058        3.7556419349
 C       -10.8613689679        8.4696365822        1.4607530379
 C       -11.6336606934        7.0906267271        1.6311651801
 C       -12.0146751999        6.5985519831        0.2118256099
 O       -11.3865403782        6.9187499433       -0.7715679144
 C       -13.1552386852        5.5537692957        0.0972106048
 C       -12.9815759965        4.7624111576       -1.2507435262
 O       -12.5262285615        3.6143033718       -1.1777223306
 C       -13.0527839878        5.4706200258       -2.5751994372
 C       -13.9004297271        4.6298943874       -3.6652336616
 C       -13.3056503085        3.3213710458       -4.1325584907
 O       -12.0773963444        3.2211123473       -4.1576275925
 C       -14.2253756967        2.2621391443       -4.7009029566
 C       -14.6839550166        1.2493648810       -3.5057692379
 O       -14.1200588479        1.3337191414       -2.4296740214
 C       -15.8730030263        0.4013030247       -3.7587401890
 C       -15.4588361899        2.7977598241       -5.3974075937
 C       -13.3390569662        1.3167888429       -5.6324870186
 C       -13.0315654866        4.4623000105        1.2052044912
 C       -14.4797176852        6.2312334459        0.2352893775
 C        -7.6953210561        9.4805801157        3.4320024620
 C        -7.8060409090        8.5398756526        1.1280764694
 C        -8.0136649887        1.7861287724        5.8593190676
 C        -6.3894279130        3.4843887043        6.8945744845
 C        -5.3181007209        3.0587587896       -1.2404537227
 C        -7.2163703874        4.5767221814       -0.4747844816
 C        -8.2510318729       -2.0788453165       -2.3817511318
 C       -10.2819283761       -2.2436506202       -3.7260669562
 H       -10.1436437696       -2.6551497940        0.0295307466
 H       -10.9413287235       -3.3197600065       -1.4191896959
 H       -11.9075636391       -2.4333594359       -0.2702463923
 H        -8.6073984628        1.6202358759       -4.4315253804
 H        -7.7541944474        0.0900750322       -4.3313498457
 H        -6.5340445381        1.7184338556       -3.1383524592
 H        -7.1901837244        0.6029287208       -1.7994481437
 H        -6.8591625547        4.0688985498        1.8693048754
 H        -5.3452128414        3.1483061555        1.8451196808
 H        -6.2556974314        1.2954599572        3.1312883643
 H        -7.8676043593        1.9346418921        3.0643619676
 H        -7.0022415594        5.8375937682        5.2375233003
 H        -8.1922979376        6.0905609209        6.4458912348
 H        -9.1312281855        7.6112276362        4.9516883097
 H        -9.8815992336        6.1926941256        4.2172664668
 H       -10.3722510773        8.4621872566        0.4728474079
 H       -11.7396953388        9.1715957434        1.5189514905
 H       -12.5139875368        7.1828460211        2.3387755338
 H       -10.8440097961        6.4956320656        2.0431665526
 H       -11.9909036674        5.4761122144       -2.9854251100
 H       -13.3938924156        6.4675029660       -2.4137924590
 H       -14.0587144830        5.3051891681       -4.5513561587
 H       -14.8948853491        4.4496437987       -3.2237140514
 H       -15.7501452939       -0.4289685671       -3.0542028420
 H       -15.9254492437       -0.1084464751       -4.7215164889
 H       -16.8006634003        0.8228927453       -3.5840611311
 H       -15.4866344861        3.8583424690       -5.3538154263
 H       -16.4208075044        2.5223535157       -5.0554833590
 H       -15.4410862272        2.5476023692       -6.4892667871
 H       -12.8225778338        2.0050452865       -6.2655471064
 H       -13.9262189706        0.5830453279       -6.1814892613
 H       -12.5851323432        0.8266659778       -5.0487864481
 H       -12.2324924200        3.7833461219        1.1354555192
 H       -13.9314933230        3.8836480754        1.1794918431
 H       -13.1348632968        4.8633801352        2.1894449651
 H       -14.5819881742        7.2520118286       -0.0730966634
 H       -14.7746917163        6.2342962631        1.2457063582
 H       -15.1898823661        5.5430262356       -0.3187916091
 H        -7.5130705415       10.4460186191        2.9560713426
 H        -6.7856183437        8.9832826081        3.8592493726
 H        -8.2941775273        9.6433290821        4.2824685274
 H        -8.0381126927        7.6015951188        0.5873421632
 H        -6.7129215032        8.4564668285        1.1863338096
 H        -8.1255398227        9.4933595774        0.6878049460
 H        -7.2441947457        1.1916379064        6.3430327727
 H        -8.4971886006        1.4331906892        4.9269885168
 H        -8.7362604639        1.7840337896        6.5951568817
 H        -5.8705475794        2.5458643298        7.2159102742
 H        -6.9517164575        3.8115150061        7.7087408899
 H        -5.7172678009        4.3054152108        6.6190286053
 H        -5.2574330340        3.2112121689       -2.3347730247
 H        -4.9712019683        2.0519388841       -1.0517612254
 H        -4.8082456146        3.8287331784       -0.7330308043
 H        -6.3942975990        5.2083103587       -0.1488478767
 H        -8.0582779806        4.7435698544        0.2572551180
 H        -7.5634545204        5.0355046153       -1.3610396612
 H        -7.4963725967       -1.4602626173       -1.9058484286
 H        -7.7683839081       -2.4105285261       -3.2653221736
 H        -8.5150405726       -3.0296280966       -1.7947858942
 H       -11.2864996175       -1.7363203467       -3.9763227376
 H       -10.5321503251       -3.2379294671       -3.3440557780
 H        -9.6664593662       -2.4443457960       -4.7122715581
 Na      -11.3184554983        2.0734943215       -2.1900469919
