117

 C       -10.9438039525       -2.4396460834       -0.7300344118
 C       -10.5222891463       -1.2132824089       -1.4302494957
 O       -10.7521654677       -0.1311596661       -1.0031439125
 C        -9.6793131566       -1.3705325531       -2.8146570496
 C        -9.6014691761        0.0139194592       -3.4941111627
 O       -10.6418466911        0.4713101503       -3.8853079440
 C        -8.2319235991        0.8824689336       -3.7045331506
 C        -7.3893596277        1.3581364530       -2.5078016875
 C        -7.8885718452        2.5485359056       -1.7137576699
 O        -9.0426741725        2.9274928840       -1.7258843995
 C        -6.8381271675        3.1639939895       -0.7532171087
 C        -6.7576931452        2.3121797318        0.6004631701
 O        -6.7987145908        1.1151707384        0.5751420123
 C        -6.4388630816        3.0470940058        1.8334563882
 C        -6.7610604111        2.3075668029        3.1430524477
 C        -6.4048273642        3.1783832237        4.2586103122
 O        -5.5743385600        4.0671519502        4.2265119182
 C        -7.2905010775        3.1265252211        5.6264144575
 C        -8.4208429391        4.1680645561        5.4261859005
 O        -9.5568371786        3.8645905523        5.2187169623
 C        -8.0175252382        5.7470211201        5.4680591838
 C        -8.8994336180        6.6397005030        4.5971813193
 C        -8.4071042693        6.9146706582        3.1112749200
 O        -7.9216795604        6.0099695714        2.4359255311
 C        -8.3866637170        8.4224134476        2.5740639648
 C        -9.9606268187        8.8540154734        2.5575886784
 O       -10.4729478252        9.2636820157        3.5696340519
 C       -10.8022934355        8.4977099190        1.3694519328
 C       -11.5573282758        7.1171210947        1.4972770938
 C       -11.9683272998        6.6076342457        0.1240941958
 O       -11.5033068786        7.0868631520       -0.8771109926
 C       -13.2042597536        5.4542694052        0.0895993158
 C       -12.9386806017        4.6375457642       -1.2462266939
 O       -12.7193841129        3.4237277874       -1.1528630930
 C       -13.1299472022        5.4044534199       -2.5602488842
 C       -13.9104717216        4.6627994736       -3.6536157462
 C       -13.2237026753        3.3029012026       -4.0693925299
 O       -12.0419135650        3.2093111836       -4.0415093914
 C       -14.2111470391        2.2409319835       -4.6105743826
 C       -14.6674805700        1.1914420943       -3.4015531445
 O       -13.9536654079        1.1203792543       -2.4266024721
 C       -15.8701334212        0.3239676601       -3.6031781442
 C       -15.4065751017        2.8774997672       -5.3044718195
 C       -13.3979474595        1.2919452409       -5.6554444479
 C       -13.0800071079        4.4931535006        1.2581866835
 C       -14.5507135027        6.2545523859        0.1760077027
 C        -7.5251562809        9.4491128619        3.4811167001
 C        -7.7494132865        8.4894490944        1.1520593576
 C        -8.0249511395        1.7444196260        5.9646815555
 C        -6.4552786227        3.6027290080        6.8079991572
 C        -5.3831002289        3.0863277614       -1.2393835386
 C        -7.2141856245        4.7139012032       -0.5745432612
 C        -8.2847189920       -2.0154356036       -2.3899636831
 C       -10.3750804577       -2.4146527725       -3.7739204539
 H       -10.1346516769       -2.9331468012       -0.3826816445
 H       -11.4588849466       -3.0332837133       -1.3844015830
 H       -11.6564708796       -2.1950011424        0.0817398538
 H        -8.4895973198        1.7028792019       -4.3609086796
 H        -7.5744904238        0.2232092243       -4.2592581759
 H        -6.4108619391        1.6712326812       -2.9473398036
 H        -7.3042796888        0.6887149633       -1.6399108740
 H        -6.9706588765        3.9655790001        1.7480524251
 H        -5.3840150314        3.2954376768        1.8580248337
 H        -6.2403846334        1.3941870410        3.2127976244
 H        -7.8889424521        2.0629504591        3.2682491773
 H        -6.9305069828        5.8352380995        5.2951989966
 H        -8.1504541143        6.2016108997        6.4666882631
 H        -8.9032418301        7.6050006143        5.0106231429
 H        -9.9251987142        6.1895830677        4.4077061149
 H       -10.1878274710        8.4151538025        0.4581651661
 H       -11.6884667495        9.2094543610        1.2402996060
 H       -12.4647777970        7.2078279213        2.1065050405
 H       -10.7612418605        6.4623719618        1.9719371288
 H       -12.1655586812        5.6655782714       -3.0284027437
 H       -13.6882776660        6.3775752816       -2.2555858346
 H       -13.8904056301        5.3539587572       -4.5148082005
 H       -14.9552958520        4.6312300822       -3.3093173844
 H       -15.7360199694       -0.5093013188       -3.0023895254
 H       -15.9671466633       -0.0822633822       -4.5800454195
 H       -16.9013782053        0.7614162873       -3.3331980141
 H       -15.2522263637        3.9365463282       -5.5098360021
 H       -16.3420175068        2.9013047185       -4.7474020383
 H       -15.6226928399        2.4592633601       -6.2555098686
 H       -13.2824372850        1.8448735349       -6.5735784987
 H       -13.8432637824        0.3270636400       -5.7708311360
 H       -12.3755028567        1.1582373270       -5.2532685455
 H       -12.2859519438        3.8020661119        1.2220449098
 H       -14.0423247910        3.9150152605        1.3312124125
 H       -13.1407837417        4.9794570620        2.1975735737
 H       -14.5007408428        7.1736629517       -0.3569608338
 H       -14.7671864809        6.5685046968        1.2028812242
 H       -15.3963274089        5.6095712511       -0.1685299660
 H        -7.4417300822       10.3626047379        2.9481019233
 H        -6.5245492811        9.0350516494        3.6945308940
 H        -7.9679989613        9.6357875476        4.4330989253
 H        -8.1683278835        7.7531560822        0.4429872209
 H        -6.6564164582        8.2478248018        1.1636088292
 H        -7.9379663097        9.5691029576        0.9152626460
 H        -7.3696309189        1.1359008388        6.6088149523
 H        -8.3601751277        1.3356113352        5.0171670471
 H        -8.9402681078        1.8368862573        6.6053368291
 H        -6.1769798915        2.6538574749        7.2850846651
 H        -7.0355937254        4.1929737495        7.5272726693
 H        -5.5856738553        4.1946208367        6.4935593136
 H        -5.1820807590        3.7551184404       -2.0696481996
 H        -5.1555100549        2.0968354441       -1.5314976072
 H        -4.8414526519        3.3958117538       -0.3764430774
 H        -6.4480850290        5.3273254819       -0.0228245128
 H        -8.1321475563        4.8540254716        0.0148849005
 H        -7.4660360702        5.2374122461       -1.5809996916
 H        -7.5259065121       -1.2553086258       -2.1922526951
 H        -7.7862019254       -2.6436162797       -3.1363269770
 H        -8.4602215309       -2.6388865920       -1.5692554960
 H       -11.4487796048       -2.1074959041       -4.0354013304
 H       -10.4271319404       -3.4302985207       -3.3854356812
 H        -9.7903195226       -2.4653399292       -4.7003709165
 Na      -11.2497269412        1.9187707085       -2.1325245432
