117

 C       -10.9613693143       -2.5350559202       -0.7472700672
 C       -10.4974800704       -1.2659217692       -1.4628099744
 O       -10.8308373458       -0.1503271796       -1.0455047402
 C        -9.6505421119       -1.4107864587       -2.7816276234
 C        -9.6077741649        0.0226393896       -3.5168402285
 O       -10.6083597750        0.3629246497       -4.1604985839
 C        -8.2373946899        0.7513874208       -3.6688954717
 C        -7.4516852902        1.1934617494       -2.4240917957
 C        -7.8985431039        2.5106535237       -1.7135682003
 O        -9.0870413982        2.7546113282       -1.6316891535
 C        -6.8720714106        3.2707715738       -0.8418868503
 C        -6.8403653399        2.4599202031        0.4840855676
 O        -7.0529242861        1.2669023186        0.5244541274
 C        -6.5341983972        3.2005387652        1.8350463659
 C        -6.7100939442        2.4086750880        3.1812104384
 C        -6.4411711497        3.4035951479        4.4189651022
 O        -5.5668074777        4.2548767494        4.3055950132
 C        -7.3111544879        3.2433687539        5.7271842119
 C        -8.4282629203        4.3129380363        5.4113986982
 O        -9.5369501626        3.9505651467        5.0347722246
 C        -7.8960786422        5.7403182333        5.3715260837
 C        -8.8926396941        6.6793480913        4.6727897936
 C        -8.4914028568        6.8400758603        3.1320397289
 O        -7.9376356095        5.9903749878        2.5079221895
 C        -8.3946528345        8.3828090870        2.5969242558
 C        -9.8491259592        8.8988066156        2.4496608771
 O       -10.3302090588        9.6659622760        3.2712538853
 C       -10.7252693327        8.5205525751        1.1711102668
 C       -11.3652122962        7.1162670018        1.3816044021
 C       -12.0511309873        6.6466122191        0.0336070805
 O       -11.8468617284        7.1312120877       -1.0667567796
 C       -13.1144565778        5.5165473776        0.1309167400
 C       -12.9780773622        4.6056928766       -1.1477366235
 O       -13.0057874434        3.3962957363       -1.0537031682
 C       -13.0317286468        5.3357157316       -2.5431011291
 C       -13.9116191826        4.5803434899       -3.5554314377
 C       -13.3121677885        3.2663683205       -3.9566115705
 O       -12.0722016872        3.1070909930       -3.8438853637
 C       -14.1358365072        2.1222771069       -4.5485005219
 C       -14.3548471696        1.2001421517       -3.3467485339
 O       -13.4906671587        0.8233990290       -2.5888991117
 C       -15.7011884020        0.4488734924       -3.3302489730
 C       -15.5162080937        2.6625123005       -5.1141998731
 C       -13.4055947738        1.3006048757       -5.6355680636
 C       -13.0534619421        4.6816221801        1.4325304411
 C       -14.5328413590        6.2756062475        0.0535065523
 C        -7.6239249752        9.2496737798        3.6334318808
 C        -7.7250334804        8.2866620535        1.2055561243
 C        -7.8446937928        1.8099881269        5.9349434954
 C        -6.4565215614        3.6804012358        7.0107876790
 C        -5.4037845311        3.3213971869       -1.4327702776
 C        -7.3107406756        4.6851919016       -0.6340178746
 C        -8.3110202967       -2.0895588488       -2.5048093528
 C       -10.4452535938       -2.3818360092       -3.7029545697
 H       -10.5014152108       -3.5357038910       -1.1229550996
 H       -12.0851952399       -2.5672289542       -0.6723236047
 H       -10.6828358951       -2.4234713790        0.2863835227
 H        -8.3640150722        1.5766525804       -4.4221340042
 H        -7.5784242020        0.0018504694       -4.1878294851
 H        -6.4458947263        1.3683324236       -2.7274117376
 H        -7.5257532141        0.4956144628       -1.5720703701
 H        -7.1047576355        4.1526844849        1.9005905524
 H        -5.4594020124        3.4676504781        1.8116731654
 H        -5.9474358541        1.5458121175        3.2044430662
 H        -7.6739519058        2.0177013557        3.2384180902
 H        -6.8784483879        5.6654384349        4.9883455999
 H        -7.7630088868        6.1655970256        6.3709765700
 H        -8.7632833022        7.7289650658        5.0327059989
 H        -9.8930150640        6.2974342893        4.6988235336
 H       -10.1736461401        8.4385917910        0.2556412775
 H       -11.5397021845        9.1782526770        1.0711106800
 H       -12.1056320565        7.1734242859        2.1878624116
 H       -10.5681119451        6.4463443676        1.6107941135
 H       -11.9919307414        5.3251976507       -2.8884255922
 H       -13.3698320739        6.2859824412       -2.4229790677
 H       -14.0014294998        5.1356346991       -4.4878914508
 H       -14.8907184177        4.5581695847       -3.1087562657
 H       -15.8409173186       -0.5128828753       -2.7292837578
 H       -15.9747575576        0.1394374541       -4.3767590220
 H       -16.4721806621        1.0737873589       -3.0414621293
 H       -15.5918683343        2.8975640253       -6.1675685711
 H       -15.8285084165        3.5660698235       -4.6049488790
 H       -16.3951134895        1.9619407123       -5.0273547093
 H       -13.5270414943        1.7170283035       -6.6553536738
 H       -13.8173873498        0.2472512220       -5.5389143448
 H       -12.3451398054        1.2178305662       -5.4000094202
 H       -12.0051320801        4.2732794790        1.4793019354
 H       -13.7266813160        3.8461081139        1.4673643312
 H       -13.2569865636        5.2094537484        2.4042930882
 H       -14.7063168689        6.8478411836       -0.8735577149
 H       -14.5675398877        7.0272211371        0.8315366688
 H       -15.2934314615        5.5566433094        0.3287743931
 H        -7.6722137127       10.2968763798        3.2599827582
 H        -6.5565659953        9.0443758970        3.6353197077
 H        -8.0354054990        9.2154737036        4.6437860270
 H        -8.2830825440        7.5041097707        0.6730333648
 H        -6.7182686453        7.9554273738        1.3886901021
 H        -7.7191365086        9.2136005878        0.6713886741
 H        -6.9816652024        1.1744025594        6.2017267377
 H        -8.4466020309        1.4215592898        5.0731982718
 H        -8.4289486934        1.8153659865        6.8173380045
 H        -5.8091180542        2.8791223132        7.4050428816
 H        -7.1024990095        4.1144795563        7.7601347901
 H        -5.8444653213        4.4966505645        6.6116377135
 H        -5.3661042439        3.8879080859       -2.3622362119
 H        -5.1272644153        2.2780172133       -1.6788663589
 H        -4.7715142600        3.7312581064       -0.6399359754
 H        -6.8331500822        5.1137774037        0.2208897505
 H        -8.3819577414        4.7047895388       -0.3226068296
 H        -7.2455231058        5.2862920227       -1.4716679718
 H        -7.5847303069       -1.4275919518       -2.0770192512
 H        -7.8366610289       -2.2923345550       -3.4283080010
 H        -8.3499999061       -3.0632379289       -1.9264054865
 H       -11.4251635729       -2.0287304736       -3.8043526983
 H       -10.5616579586       -3.3487648357       -3.3483937048
 H        -9.9696230051       -2.3775772567       -4.6646980286
 Na      -11.3175567238        1.7653275860       -2.1547282783
