117

 C       -10.3154406608       -2.5318997924       -0.4307637847
 C       -10.3098625364       -1.4257444364       -1.4674324994
 O       -10.8608039910       -0.3865432132       -1.2315009605
 C        -9.7390681891       -1.6760169383       -2.8894700798
 C        -9.3329894307       -0.2448416169       -3.4731135106
 O       -10.0870784844        0.3981514753       -4.1718422084
 C        -7.8958166827        0.3701298211       -3.2006869809
 C        -7.7110077541        0.8825675699       -1.7461465062
 C        -8.3440365621        2.3121093924       -1.5767581973
 O        -9.4108509337        2.6597409595       -1.9934211401
 C        -7.4640356038        3.3165044852       -0.7868450037
 C        -7.1907478056        2.7109238101        0.5795048836
 O        -7.3077966247        1.5210298456        0.7138864994
 C        -6.5555756943        3.6269610434        1.7517502727
 C        -6.8597202377        2.9632816207        3.1115451065
 C        -6.2482267348        3.6891672175        4.2740051077
 O        -5.2298897114        4.3490497956        4.1612176492
 C        -7.0645151889        3.7362334136        5.5739798396
 C        -8.2587266531        4.5751606833        5.1346949921
 O        -9.2449026396        4.1470007110        4.5657390844
 C        -8.1766652437        6.1059757832        5.4408287850
 C        -9.2131675603        6.9255007630        4.7589217252
 C        -8.8444648028        6.9702695433        3.2442900784
 O        -8.8767650229        5.9819280131        2.5583566421
 C        -8.2272929374        8.2544660505        2.6186642309
 C        -9.5181107159        9.0751034752        2.0987023686
 O        -9.9285494319       10.0323744688        2.7178290349
 C       -10.3193157841        8.5143344407        0.8441659969
 C       -11.0427523808        7.1954981973        1.0408207675
 C       -12.1566884492        6.9925821185       -0.0603212858
 O       -12.3078350386        7.6799980922       -1.0477927674
 C       -13.0326964916        5.6399838435        0.1811748041
 C       -12.6632280374        4.7478092593       -1.0383204478
 O       -12.0801815237        3.7160800351       -0.9296139287
 C       -13.2438864448        5.0811779665       -2.4520026426
 C       -14.2034410322        3.9451883985       -2.9188506084
 C       -13.4885773078        2.8944196623       -3.7799783622
 O       -12.3130362169        3.0524663260       -4.1166658030
 C       -14.1942057265        1.6176904680       -4.4015698369
 C       -14.0646456785        0.6629100376       -3.2019396160
 O       -13.1493147693       -0.1246218447       -3.1407856594
 C       -15.1089770735        0.6294842247       -2.0404326263
 C       -15.6522124336        1.9966805602       -4.8750806117
 C       -13.3167824860        1.1089233118       -5.5733012015
 C       -12.6564831649        4.9157844454        1.4990970567
 C       -14.5434220633        6.0715007543        0.0501548089
 C        -7.5695727044        9.2092964240        3.6205678227
 C        -7.2431127029        7.7798707127        1.4796422432
 C        -7.6444700735        2.4100934054        5.9631286879
 C        -6.3981565276        4.3284387041        6.8704352170
 C        -6.1866277793        3.5308338144       -1.7437224785
 C        -8.1935728663        4.6736776418       -0.6599647907
 C        -8.6046085889       -2.7114705578       -2.8582190364
 C       -10.9497499532       -2.2389367189       -3.6416298630
 H       -11.0695926566       -2.3108186937        0.3082140119
 H        -9.3936053191       -2.5091543348        0.0551374292
 H       -10.4679604117       -3.5410014035       -0.8379208302
 H        -7.7034426227        1.1379977259       -3.9257991301
 H        -7.1790049680       -0.4027153811       -3.3821763200
 H        -6.6371874498        0.9629937528       -1.5453705614
 H        -8.0443075521        0.2485047626       -0.8958372823
 H        -6.9513395581        4.6516105521        1.6977634147
 H        -5.4774283246        3.6160848088        1.7076373156
 H        -6.3406140800        1.9472081126        3.0208648210
 H        -7.8834522959        2.8181485280        3.2340361448
 H        -7.1985968677        6.4682056047        5.1892500501
 H        -8.2890583823        6.3602579904        6.5051938911
 H        -9.2465473561        7.9392724522        5.2474213191
 H       -10.2175696816        6.5891832150        4.9041468567
 H        -9.6930519301        8.4139117339       -0.1146230216
 H       -10.9839362821        9.3441344321        0.5431705596
 H       -11.3029106798        7.1293370226        2.0891611905
 H       -10.3222926728        6.3374421723        0.8993639617
 H       -12.3062720394        5.1348445579       -3.1454228525
 H       -13.7791581238        6.0170538958       -2.4801482244
 H       -15.0075808348        4.3960791113       -3.5443275841
 H       -14.7444648961        3.5217625054       -2.0332946945
 H       -15.3165959548       -0.3880402230       -1.6557860066
 H       -16.0731431597        1.1087067383       -2.2225451812
 H       -14.7699807163        1.1134631295       -1.2136078674
 H       -15.6868480209        2.5018375031       -5.8461907204
 H       -16.0779799688        2.6118388102       -4.1044763372
 H       -16.3698577245        1.1310973559       -4.8459816792
 H       -13.7977837504        1.4102790716       -6.5059556640
 H       -13.3212766346        0.0045540443       -5.6589118731
 H       -12.2959772060        1.4298209191       -5.5770308717
 H       -11.5687302172        4.7848701800        1.4599886907
 H       -13.0008809630        3.9468725805        1.4893100265
 H       -12.7861800307        5.4604606952        2.4318249683
 H       -14.7238338949        6.7653615418       -0.7915864579
 H       -14.7446387246        6.5401251135        1.0062530726
 H       -15.2057304727        5.2570837465       -0.1169017997
 H        -7.1549290147       10.0519454116        3.0066518730
 H        -6.7262962276        8.7764919510        4.1526979576
 H        -8.2144911049        9.7382553554        4.3367951241
 H        -7.7845171993        7.0318895928        0.8583357104
 H        -6.3307414248        7.3309853119        1.9077700133
 H        -7.0295543768        8.5969776732        0.8009300738
 H        -6.8395631229        1.9261629569        6.4771127940
 H        -7.8761168621        1.6477867632        5.1961857410
 H        -8.4672225280        2.6626990552        6.5776495343
 H        -5.8142062310        3.5394139802        7.2977140154
 H        -7.1496445753        4.6441345863        7.5903021659
 H        -5.7567529985        5.1240960475        6.5206795483
 H        -6.3966753670        4.2951798178       -2.4721516774
 H        -5.8977589598        2.5492113794       -2.1566702520
 H        -5.2850334108        3.8108259314       -1.1511721336
 H        -7.5873320191        5.4178824486       -0.2043115416
 H        -9.1207122926        4.4689807445       -0.0907609815
 H        -8.4451174666        5.0561622913       -1.5770514119
 H        -7.7538613253       -2.3593397606       -2.2710240950
 H        -8.2706057988       -2.9803086116       -3.8507486388
 H        -8.8666468622       -3.7193328723       -2.3829218032
 H       -11.7385506420       -1.4025762188       -3.7626435909
 H       -11.3934081375       -3.1873628303       -3.3393572607
 H       -10.5953396814       -2.3750184352       -4.7598781432
 Na      -11.4348753472        1.6269457035       -2.3975959514
