117

 C        -7.8947344479       -5.2857234648        2.8277290469
 C        -6.6761468596       -5.0397759865        3.7064415656
 O        -5.6125740825       -4.6937592598        3.2172922401
 C        -6.8407797892       -4.9746126523        5.2631660027
 C        -6.8740075566       -3.4911545831        5.6312561816
 O        -5.9591313708       -3.0480819726        6.2721112032
 C        -8.1190612608       -2.6615733797        5.2712337896
 C        -7.9430767215       -1.2567185460        5.8829614295
 C        -8.1738466227       -0.0550059896        4.8773861101
 O        -8.4237220589       -0.2244830345        3.6504143258
 C        -7.7508763185        1.3762146022        5.3553814914
 C        -7.6678015977        2.3352610625        4.0494860858
 O        -6.6902474674        3.0418302568        3.7891414362
 C        -8.9134636091        2.5438933990        3.1008352601
 C        -8.4364897232        2.7461172766        1.6560401671
 C        -9.4726949845        3.2604302038        0.6102160595
 O        -9.3155516051        4.3508165390        0.1376355357
 C       -10.5799108583        2.3367399272       -0.0061562640
 C       -11.9724020655        2.7456151727        0.6610352871
 O       -11.9830771712        3.1080426260        1.8128821164
 C       -13.4257425146        2.7530721850       -0.0844505080
 C       -14.0898644713        4.1166776044        0.1649729626
 C       -13.4403351153        5.2636325067       -0.7009920806
 O       -12.3417457627        5.6440025265       -0.3817673257
 C       -14.1075577488        5.8111822618       -1.9264882782
 C       -13.1664526097        5.8201769531       -3.2234024261
 O       -12.0576064822        5.4220646626       -3.1113098173
 C       -13.7589756162        6.3089110197       -4.5668546723
 C       -12.6311225594        6.8346861001       -5.4367691628
 C       -12.5755998265        8.3912243161       -5.3226071754
 O       -13.2394166486        8.9673367198       -4.4818092530
 C       -11.4866996349        9.1809226943       -6.2038807042
 C       -10.1932329749        9.1958794262       -5.3544462959
 O        -9.2364742580        8.5077216462       -5.6787031808
 C       -10.2057472330        9.9852075845       -3.9848162319
 C        -8.8797331085        9.6340868323       -3.2101056594
 C        -9.0299330444        8.3344578714       -2.4307846235
 O       -10.1084890921        7.8704230798       -2.0594765393
 C        -7.6375721966        7.5370356643       -2.0740869258
 C        -7.6581477037        6.0947778322       -2.7600520005
 O        -8.7183356745        5.4405605194       -2.6983666469
 C        -6.4257990884        5.3762653453       -3.2992429231
 C        -6.3055851568        8.2859291681       -2.3557159047
 C        -7.7184716023        7.2494644321       -0.5291329521
 C       -11.1468004823        8.4990019231       -7.5074175090
 C       -12.1630872174       10.6275400843       -6.4861836097
 C       -15.4380291760        5.1209449460       -2.3691791198
 C       -14.3381158495        7.3438843889       -1.6432983284
 C       -10.5291557186        2.5457932814       -1.5184688438
 C       -10.4213885245        0.8519458245        0.3130382116
 C        -8.8211547499        2.0937509684        6.2808655319
 C        -6.4153502729        1.4562418632        6.0868932174
 C        -8.0618000998       -5.7191202746        5.7307851547
 C        -5.5498350096       -5.6120013012        5.9292869609
 H        -8.4999468052       -6.1265485181        3.2204379876
 H        -7.5837362183       -5.5497060244        1.7941328454
 H        -8.5427626694       -4.4487657266        2.7891059187
 H        -9.0938883979       -3.0485661059        5.5716035741
 H        -8.0948108457       -2.4750690098        4.1720817711
 H        -6.8996883535       -1.0943594609        6.2092766272
 H        -8.6578622533       -1.1827076789        6.8160083082
 H        -9.5038988266        3.3925933179        3.3077045565
 H        -9.6253847333        1.6834530850        3.2126353174
 H        -8.0726127309        1.7658578152        1.3869165521
 H        -7.5690548018        3.4082310897        1.5798199584
 H       -13.9910354074        2.0279056603        0.5257665635
 H       -13.2306809941        2.5384589799       -1.1675827856
 H       -13.9734502031        4.3425358593        1.2487053978
 H       -15.2523971798        4.1440297854        0.0736995180
 H       -14.4294100358        7.1307834883       -4.5168607090
 H       -14.2430283054        5.4094066175       -4.8597243698
 H       -12.8303885070        6.6171928691       -6.4935804822
 H       -11.6357829867        6.5113133255       -5.2268738527
 H       -11.0392084682        9.7697435333       -3.3972006901
 H       -10.1408766671       11.0750360487       -4.2916550316
 H        -8.3876232517       10.3608341279       -2.5898649073
 H        -8.1458173563        9.4593370386       -4.0538892629
 H        -5.6552649827        5.9883701651       -3.7268969430
 H        -6.7495571399        4.5518469403       -3.9105168826
 H        -5.9869557877        5.0073150014       -2.3647849773
 H        -6.2619576172        9.0629602661       -1.6114468716
 H        -6.2499582507        8.6945827714       -3.3395100930
 H        -5.4792700843        7.6330166890       -2.2398603830
 H        -7.2424228965        8.1769939897       -0.1283338107
 H        -7.5017464094        6.2996558234       -0.0520048075
 H        -8.7818131427        7.3599390002       -0.1600319011
 H       -10.4726890555        7.6941768026       -7.2084739895
 H       -10.5637510781        9.0602384578       -8.2665611034
 H       -11.9891279810        8.0222880131       -7.9639161036
 H       -11.4531757669       11.1271839798       -7.2566140908
 H       -12.2854443475       11.2469679859       -5.5897278371
 H       -13.0794888870       10.3579547221       -7.0105949005
 H       -16.1157476453        5.1054830139       -1.4888415431
 H       -15.2754926230        4.0396274994       -2.5574743328
 H       -15.9034522434        5.5202586326       -3.3176597551
 H       -15.4041064498        7.5017559738       -1.2145052403
 H       -14.3358234064        7.9762774468       -2.5482660204
 H       -13.5764476235        7.7487162359       -0.9549700170
 H       -10.9908193722        1.8051843066       -2.0657594984
 H        -9.5113123557        2.5983490103       -1.8765990682
 H       -11.0254579892        3.4490612851       -1.7325585744
 H       -10.3375081624        0.7343133943        1.3855996082
 H        -9.6106966286        0.3931613666       -0.1460945378
 H       -11.3063635710        0.2717662832       -0.0466126625
 H        -9.3175988491        1.4491306831        6.9639936102
 H        -9.5774647634        2.6310390252        5.7241936754
 H        -8.2797050611        2.8016063444        6.9170441862
 H        -6.4463843544        1.1534102723        7.1454642551
 H        -6.0287286118        2.4577687298        6.0453675066
 H        -5.5763392904        0.9272041949        5.6592225886
 H        -8.9708363201       -5.3738048058        5.2371151517
 H        -8.1326164753       -5.5357785828        6.8424581091
 H        -7.8200881856       -6.7649341309        5.5975918330
 H        -4.7282853833       -4.9257986619        5.7960025643
 H        -5.3554641999       -6.6286868373        5.4737940269
 H        -5.7115443486       -5.7974215425        7.0353493325
 Na      -10.4962665205        5.8591736624       -1.4443458815
