117

 C       -11.9103674769        6.8411060907       -0.7145326893
 C       -11.9577885019        6.2854833345        0.7506983921
 O       -12.0208059916        5.0806111769        0.7245726465
 C       -11.8928191008        7.1667521519        2.1379113707
 C       -12.3657210786        6.3301199582        3.3669627479
 O       -11.6198485836        5.4582696317        3.7659473641
 C       -13.4493826446        6.8111694215        4.2421486011
 C       -14.0485931562        5.6512089332        5.0607408738
 C       -14.5105919367        4.6073396010        4.1291950308
 O       -14.4515170095        4.8633680261        2.9590039523
 C       -15.0841742775        3.2679729767        4.8364361458
 C       -14.0084849747        2.1052952054        4.2975682285
 O       -13.0193852062        1.9100888719        4.9218095771
 C       -14.4513395092        1.4610282124        2.9056162291
 C       -13.3322612398        0.5330000070        2.2358894206
 C       -13.0620362638        1.0043265608        0.6912411771
 O       -13.1344119780        2.1903015309        0.4447356209
 C       -12.6127592484       -0.1763575983       -0.4546955781
 C       -11.4285358455       -0.9771220568        0.5035964258
 O       -11.7489845484       -1.9716648443        1.1511094485
 C       -10.1569603273       -0.1027828383        0.5768355754
 C        -9.4568398435        0.0876845606        1.9449622792
 C        -9.3994639551        1.5999781766        2.3701618170
 O       -10.4235223463        2.1005180655        2.7212370743
 C        -8.1052254524        2.5573910509        2.1723962149
 C        -8.2749254538        3.1529047611        0.7627431799
 O        -9.2643003682        2.8822411805        0.0363106075
 C        -7.2153911021        4.0580234562        0.1177231648
 C        -6.7992033263        3.7016087350       -1.4118422274
 C        -5.9554757271        2.5052682667       -1.4815177450
 O        -5.7203620318        1.7931614209       -0.4986765936
 C        -5.7239746156        2.0858566554       -2.9459261016
 C        -4.9835461335        3.1671225429       -3.9621519827
 O        -4.8957263462        4.3495771412       -3.6443458590
 C        -4.4375897365        2.6783005889       -5.3508588078
 C        -4.4540000735        4.0357455575       -6.1657433138
 C        -5.6694010590        4.2485246734       -7.0161147016
 O        -6.5839351299        3.4534528593       -7.1631252304
 C        -5.6591037488        5.7424405641       -7.8671359993
 C        -5.5468875187        6.9410534504       -6.8448233348
 O        -5.6773645761        6.9150470928       -5.6574839023
 C        -5.4274212079        8.2863457132       -7.5382400738
 C        -4.5698732069        5.8259880770       -8.9098798868
 C        -7.0103000694        5.7536889438       -8.4200749046
 C        -4.9882657142        0.6868664697       -3.1067255275
 C        -7.1454774269        1.9745272989       -3.7177190303
 C        -8.1690970649        3.8451441853        3.0287326188
 C        -6.6995166723        1.8279904148        2.2102222826
 C       -13.8392411828       -1.1137673808       -0.5290175303
 C       -12.0995770926        0.4811260818       -1.7173142609
 C       -14.8745278697        3.1906519107        6.3112535506
 C       -16.5238680682        3.1331306495        4.3432374624
 C       -10.4761401170        7.7021395462        2.3009045886
 C       -12.7688679571        8.2981833649        1.8676658690
 H       -12.1092313783        7.9606939440       -0.8336225117
 H       -12.6441133538        6.2426487830       -1.2547199672
 H       -10.8492469876        6.6418219683       -1.1072082764
 H       -14.2564092442        7.3305817524        3.7478089959
 H       -13.0827818528        7.5836159730        4.8535446566
 H       -14.7710576874        6.0450920159        5.6676869911
 H       -13.4183632249        5.2361322836        5.8630541906
 H       -14.6632938099        2.2641487357        2.1768863127
 H       -15.4003116541        0.9348582438        3.0407273647
 H       -13.6455224172       -0.5301225921        2.0666654235
 H       -12.4734410893        0.6543643931        2.9525678679
 H       -10.2642358759        0.8459032077        0.0847892195
 H        -9.3913683044       -0.5144572146        0.0022178893
 H        -8.4613170384       -0.3873649099        1.8117343266
 H       -10.0781430279       -0.4700173044        2.6524836489
 H        -6.2318211031        4.1913790060        0.7806521159
 H        -7.8589666360        5.0066753107        0.0840266781
 H        -6.3768551984        4.5822782233       -1.9835278031
 H        -7.8238502277        3.5745348723       -1.9608859619
 H        -5.0132171902        1.8494654117       -5.7708951380
 H        -3.4024661451        2.4074270874       -5.2523694619
 H        -3.5548739823        4.0398409580       -6.7975554331
 H        -4.3548316501        4.7876302494       -5.3702735396
 H        -6.1546798429        8.9833782068       -6.9100540407
 H        -5.6609337506        8.4179374704       -8.5713027325
 H        -4.3775656957        8.5008760436       -7.4670369566
 H        -4.0469316855        6.8089685279       -8.7933088923
 H        -5.0271142840        5.8645420794       -9.9658780116
 H        -3.9494312133        4.8552445222       -8.8010641261
 H        -7.7294670243        5.8549708962       -7.5975371612
 H        -7.0776923333        4.9025073054       -9.0065340737
 H        -7.2506300977        6.6684198212       -9.0201385052
 H        -5.0776265781        0.4657331690       -4.0917907592
 H        -5.6797329375       -0.0860053510       -2.6972452292
 H        -4.0486004196        0.4006636159       -2.5992130585
 H        -7.5916650697        2.8827473090       -4.0081933448
 H        -7.9312199169        1.3994183020       -3.2130350278
 H        -6.9240039915        1.6871882881       -4.7949111855
 H        -7.2453363637        4.3247383792        3.0629155184
 H        -8.5249276609        3.5128789913        4.0396416056
 H        -9.0190193359        4.3790455297        2.6626338570
 H        -6.6309809818        0.8154834048        1.8925300765
 H        -6.3040220752        1.6447066393        3.2421439022
 H        -6.0132897012        2.4596686196        1.6566826458
 H       -14.7773019816       -0.5848885755       -0.7702664653
 H       -13.8103556738       -1.7675722850        0.3301260846
 H       -13.5828995475       -1.8130638874       -1.3069225721
 H       -12.1751100786       -0.2231279327       -2.5104488124
 H       -11.2402114958        1.0780606692       -1.5979411628
 H       -12.8125555191        1.2862469882       -2.0538451252
 H       -14.7926415940        4.1563490618        6.9028823826
 H       -13.8322184093        2.7601675419        6.4814426497
 H       -15.5676309565        2.5801737125        6.9050775208
 H       -17.1303208859        3.7409113676        4.9457773579
 H       -16.8326850856        2.1419737071        4.3592532458
 H       -16.6638600062        3.2987301465        3.2616017698
 H       -10.3767543442        8.6695252481        1.9158611305
 H        -9.7799436152        6.9225879115        2.0109931819
 H       -10.2790520508        7.7468368790        3.3632643500
 H       -12.7899918280        8.9431311878        2.7229716379
 H       -13.8430568983        8.0528455503        1.7250787417
 H       -12.5395482352        8.9938511914        1.0058310046
 Na      -12.2391051166        3.4791037866        2.1931676498
