117

 C        -9.1608121312       -1.2542743117        0.7418079093
 C        -9.8730025699       -0.9309030762       -0.5508629681
 O       -10.8906544886       -0.2420078269       -0.4356789825
 C        -9.4675366782       -1.4998163257       -2.0119511554
 C        -9.1851348062       -0.3717783411       -3.0248107829
 O       -10.0823314490        0.1305109815       -3.6456023655
 C        -7.7960404701        0.0893911813       -3.3059192314
 C        -7.2236162751        0.7341258016       -2.0477253495
 C        -8.1067554804        1.9306571675       -1.6430810152
 O        -9.2586173755        2.0221706636       -1.9178461951
 C        -7.3407679446        3.1774909084       -0.9158449844
 C        -7.0720494425        2.9102279378        0.6008817833
 O        -7.0576091402        1.7696775922        0.9928208602
 C        -6.9304392680        4.1233429516        1.4644739305
 C        -6.7669766338        3.7008203274        2.9045484153
 C        -6.0181455534        4.6697450722        3.8136904244
 O        -5.2247433605        5.4980168797        3.3894070581
 C        -6.3894207423        4.8189305017        5.3749794381
 C        -7.6691416931        5.7021691018        5.4245449714
 O        -8.7423111103        5.2129442581        5.6191397749
 C        -7.5102230040        7.2801211924        5.3553493172
 C        -8.7857677517        7.9466643735        4.7688127946
 C        -8.8344377729        7.6712388430        3.2294490668
 O        -9.1988599221        6.5856293980        2.8287433981
 C        -8.6045159010        8.7796117507        2.0884894464
 C       -10.0185790556        9.0772931634        1.5453873213
 O       -10.7640512214        9.8731043806        2.0638828251
 C       -10.5098529278        8.2279012267        0.3161877760
 C       -11.1617199907        6.8664196825        0.5894191317
 C       -11.4470731497        6.0939663986       -0.6868121257
 O       -10.8805807862        6.2099226808       -1.7662013193
 C       -12.7076440422        5.0641707411       -0.6277132587
 C       -12.5671849613        3.8457462496       -1.5908387802
 O       -12.4179301829        2.7212162102       -1.1123202369
 C       -12.7337953008        4.0020408814       -3.0706980810
 C       -14.1299873482        3.5466292003       -3.5833909000
 C       -14.0575242834        2.0365002446       -3.8400977885
 O       -12.9703463167        1.5360307276       -4.1884911279
 C       -15.2747011191        1.1343931506       -3.6595434946
 C       -14.9947801170        0.1785189571       -2.4451268292
 O       -13.9272467707       -0.2976703858       -2.0659653620
 C       -16.2938163702       -0.2561584510       -1.7782402938
 C       -16.6157119926        2.0243355876       -3.5468187625
 C       -15.4172370405        0.1287235712       -4.8801589218
 C       -12.8645019215        4.4741541690        0.7615852944
 C       -13.9465054278        5.8874865404       -1.0500402338
 C        -8.0341188124       10.0879138599        2.6401800806
 C        -7.6642364381        8.1051262110        0.9976556405
 C        -6.6946167392        3.4237238237        5.9985737683
 C        -5.2071898836        5.3886761315        6.2037150067
 C        -5.9706424835        3.5428361930       -1.5455048701
 C        -8.2949828951        4.4326249180       -1.1835031642
 C        -8.2436696203       -2.4034715709       -2.0169034717
 C       -10.7126753512       -2.3537572581       -2.5179119178
 H        -9.6008404850       -2.1014966024        1.2691605314
 H        -9.3658805138       -0.4269770000        1.4622284327
 H        -7.9957303990       -1.4138878199        0.7213719469
 H        -7.7991742067        0.8572815491       -4.0993521331
 H        -7.2671679572       -0.8230882492       -3.6423326061
 H        -6.1821395269        1.0815100783       -2.2001236058
 H        -6.9907454272        0.0398000747       -1.2045384130
 H        -7.8489611664        4.7245919337        1.3461609812
 H        -6.0666867920        4.7678094642        1.1668364008
 H        -6.0689124217        2.7962074424        2.8046404766
 H        -7.6837075743        3.3990931642        3.3989519272
 H        -6.6194261224        7.6688328460        4.9047173485
 H        -7.3688106237        7.5168191653        6.4522092491
 H        -8.9227374032        8.9442327329        5.0690016730
 H        -9.5860227868        7.3471640244        5.1910259176
 H        -9.7295768948        8.0521802130       -0.3860547770
 H       -11.2925033796        8.8701563370       -0.0980358656
 H       -12.1418991972        7.0859523888        1.0184102712
 H       -10.4627962854        6.3300599307        1.1396381693
 H       -11.9573736091        3.4161398419       -3.6435205382
 H       -12.5892792984        5.0594444515       -3.3554748789
 H       -14.3691810029        4.0366705391       -4.5133026134
 H       -14.9677602142        3.7566419446       -2.9402012327
 H       -17.1394787267       -0.3826565384       -2.5172603369
 H       -16.5999457502        0.5213468888       -1.1673957366
 H       -16.2752269511       -1.2060801871       -1.2789519067
 H       -16.7449993164        2.5438926111       -4.5049973392
 H       -16.5397139383        2.7208637738       -2.7465940042
 H       -17.4702452767        1.3732207343       -3.5168285789
 H       -15.5476915847        0.5998545826       -5.8231175199
 H       -16.1251841371       -0.6719660794       -4.9033577199
 H       -14.4266208688       -0.3340510194       -5.0273505767
 H       -11.9194947747        4.2075483843        1.1572677893
 H       -13.5454673532        3.6084809037        0.8054464584
 H       -13.3400779403        5.1604852085        1.3952044282
 H       -13.8455107168        6.0930484571       -2.0958227303
 H       -14.0298620392        6.8411746634       -0.6105827663
 H       -14.9676736290        5.4070517282       -0.8668658965
 H        -7.7679372363       10.7619854915        1.8826565898
 H        -7.1148412325        9.8370690581        3.1712934509
 H        -8.7036682839       10.5047776017        3.3756596891
 H        -7.8010625103        7.0484234100        0.7475686871
 H        -6.6094103223        8.2328507131        1.2479324694
 H        -7.6404397012        8.7087827582        0.0845713757
 H        -5.8158693962        2.7771141188        5.9626768540
 H        -7.5047464069        2.9492171474        5.5544606696
 H        -6.8185863128        3.3366815161        7.0875671429
 H        -4.3648223651        4.6616486025        6.3130284641
 H        -5.5867026262        5.6920880537        7.1328843372
 H        -4.7780526987        6.3023022312        5.7925349511
 H        -6.0255709924        3.9573249044       -2.5732082100
 H        -5.2310811389        2.7674819729       -1.6915672792
 H        -5.5788089883        4.2766195883       -0.8956640729
 H        -8.0379670674        5.3231031064       -0.5367874089
 H        -9.3792903993        4.2155209754       -1.1243882641
 H        -8.1748424825        4.7549306920       -2.2758174033
 H        -7.3755978254       -1.8793123034       -1.5542304264
 H        -8.0085836607       -2.5474269216       -3.0521811671
 H        -8.3250394570       -3.3591492145       -1.5106358917
 H       -11.5724034207       -1.7386143535       -2.6058661789
 H       -10.9258967227       -3.1082419716       -1.8884082408
 H       -10.4519468460       -2.7718866686       -3.4565075337
 Na      -11.8265010256        0.8276037519       -2.3019865256
