117

 C        -9.1429796479       -1.0676513252        0.3590874855
 C        -9.9806524216       -1.0920600430       -0.9025113660
 O       -11.0957630640       -0.5353342379       -0.8978847149
 C        -9.5518016294       -1.7514879861       -2.2454537911
 C        -9.1205689055       -0.4752988152       -3.1787049546
 O       -10.0567897983        0.0595316491       -3.6879295845
 C        -7.7193446073        0.1374763923       -3.3642868072
 C        -7.0538022931        1.0197278380       -2.3194373713
 C        -7.9483708666        2.1050650324       -1.7310996845
 O        -9.1123155886        2.2380970087       -1.9633936342
 C        -7.2088737793        3.1363526257       -0.7837484016
 C        -7.1811210046        2.6584613597        0.6632678214
 O        -7.4930381587        1.5092427048        0.8954039170
 C        -6.6593589703        3.6900835748        1.6669807308
 C        -6.7454085562        3.3914096290        3.1302200467
 C        -6.1955425277        4.6230353878        3.8998406783
 O        -5.5506053699        5.4980471444        3.3488773725
 C        -6.4901595815        4.7587096268        5.4204014846
 C        -7.7342976897        5.6930856068        5.4950018076
 O        -8.8010775008        5.1986041934        5.6702521601
 C        -7.6205567932        7.2242170477        5.2317639781
 C        -8.9664196598        7.7276845423        4.5876544800
 C        -8.8707180547        7.5232564825        3.1423134432
 O        -8.9600731191        6.3750087923        2.7604319475
 C        -8.5776690550        8.6840950766        2.1785550278
 C       -10.0608226542        9.1546662701        1.6378613416
 O       -10.7652730933        9.8275934287        2.3433096176
 C       -10.6276909435        8.6116479058        0.2699290281
 C       -11.2637694632        7.2064802836        0.5577313475
 C       -11.4441663627        6.2939311257       -0.6099654093
 O       -10.6712644420        6.2221895427       -1.5566377767
 C       -12.6571386204        5.2518055634       -0.4476331049
 C       -12.4624533541        4.0889234487       -1.4449345860
 O       -12.3433198220        2.9614965631       -0.9871723517
 C       -12.7879020334        4.2165202445       -2.9591451175
 C       -14.1157007261        3.5260691349       -3.3602329040
 C       -14.0755800679        2.0337932661       -3.9092825666
 O       -13.1386607187        1.5992095768       -4.5661820289
 C       -15.3631508937        1.1450463168       -3.7603104720
 C       -15.1286444843        0.2803201426       -2.4330764991
 O       -13.9884880469       -0.2042959721       -2.3033532906
 C       -16.1966045587       -0.1165750695       -1.4310204796
 C       -16.7267605480        1.7964595290       -3.8059312732
 C       -15.2237890750        0.1025431607       -4.9807618132
 C       -12.5786856965        4.6384545102        0.9391840571
 C       -13.8861805300        6.0997175121       -0.7422376011
 C        -7.9599265129        9.8595007421        3.0038224535
 C        -7.5830188135        8.2375592694        1.0990388777
 C        -6.7376619234        3.4720678910        6.1727218715
 C        -5.3453906413        5.5278638702        6.0875208578
 C        -5.7518165370        3.4447179627       -1.1588227750
 C        -7.9786751193        4.4941414266       -0.7519140501
 C        -8.3101130214       -2.6477526441       -1.9258147685
 C       -10.6853967441       -2.5594150702       -2.9558271130
 H        -9.5937877781       -0.8270331507        1.2152665687
 H        -8.3331218970       -0.4217734123        0.2580959231
 H        -8.6516279386       -2.0507345471        0.5497030470
 H        -7.8824608234        0.8329380612       -4.1653462685
 H        -7.0234504934       -0.6147486982       -3.6994047096
 H        -6.1821582307        1.3933328136       -2.8510144028
 H        -6.6104750795        0.4230714683       -1.5115804271
 H        -7.0120297617        4.7293021415        1.5230962277
 H        -5.6358093013        3.7730297791        1.3934349263
 H        -6.0195289012        2.6206904816        3.4301861750
 H        -7.7648683656        3.1182007366        3.4913704719
 H        -6.7547551549        7.5302968552        4.6610727871
 H        -7.4400188322        7.7942187198        6.1239639825
 H        -9.1914905215        8.7151457047        4.9957124697
 H        -9.7714820197        7.0299032389        5.0053956695
 H        -9.8514476636        8.4817339941       -0.5009260084
 H       -11.3555221708        9.3397294953       -0.1809027969
 H       -12.2627073900        7.4788539568        1.0547987287
 H       -10.4751473396        6.5936382077        1.0672849053
 H       -11.9186096568        3.8129802564       -3.4459124428
 H       -12.9210347078        5.3205603229       -3.2262669568
 H       -14.5720654912        4.1093588970       -4.1927147654
 H       -14.8990999857        3.5665468212       -2.5579605118
 H       -16.6672566938       -1.1475339388       -1.5705692791
 H       -16.9707495686        0.5973947769       -1.3118848191
 H       -15.6935496392       -0.2743600732       -0.5182176848
 H       -16.7320848993        2.4619780966       -4.7128459692
 H       -16.8659748249        2.3890788243       -2.8703937318
 H       -17.4082597204        0.9857595960       -3.8911699952
 H       -15.1047556920        0.4820179226       -5.9884012493
 H       -16.0519722429       -0.5726458680       -5.0604088712
 H       -14.3560154566       -0.5918508960       -4.8862405668
 H       -11.6920921903        3.9462797564        0.9276725647
 H       -13.4996856300        4.0323435833        1.1831444396
 H       -12.4409958706        5.3742108684        1.7272901968
 H       -13.8613009768        6.7383243467       -1.6064298845
 H       -14.1827703823        6.7081852403        0.1033344449
 H       -14.7257141215        5.3950998381       -0.9582118314
 H        -7.5029761503       10.4680203601        2.2562134189
 H        -7.1363371527        9.5919610904        3.6620573099
 H        -8.7304815511       10.4204267832        3.6366920855
 H        -7.8666441647        7.5113614017        0.3706168026
 H        -6.7281718413        7.7616980175        1.5765211489
 H        -7.1341117646        9.0955465935        0.5990887856
 H        -6.1898071098        2.5801553299        5.8216637154
 H        -7.7322946940        3.2044019365        5.9954732795
 H        -6.6068259190        3.4660516853        7.3149092709
 H        -4.5215967076        4.8099955969        6.1901429705
 H        -5.6004815265        5.8198039764        7.1236050848
 H        -4.9343266201        6.3819908115        5.5521632864
 H        -5.5552641478        3.3301990920       -2.2475007731
 H        -5.0080079530        2.7532389775       -0.7978038276
 H        -5.4963664050        4.4474641168       -0.8779740405
 H        -7.3306489075        5.3124616403       -0.7779614041
 H        -8.6502142548        4.4549958371        0.0817936191
 H        -8.6436321622        4.6385528897       -1.5659416752
 H        -7.5267311453       -2.0331611653       -1.4499472853
 H        -7.8274466310       -3.1044926082       -2.8182984794
 H        -8.6358871849       -3.4023144276       -1.2688173908
 H       -11.6013120003       -1.8475943926       -2.9269005452
 H       -10.9142692969       -3.4361695009       -2.3760893061
 H       -10.3997771352       -2.8587639304       -4.0406998658
 Na      -11.9281552800        0.9371527009       -2.5614734015
