117

 C        -9.1870884041       -1.1968263822        0.6101527522
 C        -9.9780403466       -0.9202460036       -0.6611953501
 O       -11.0188632783       -0.3571712435       -0.6457130632
 C        -9.4568828462       -1.5412459929       -2.0422628662
 C        -9.1881243139       -0.3914851117       -3.0914636744
 O       -10.1154445494        0.1362063271       -3.7045692394
 C        -7.7036863392        0.0666476406       -3.3679363212
 C        -7.1676135818        0.8805444357       -2.1687239580
 C        -8.0225509009        2.0990966512       -1.7814402090
 O        -9.2330950116        2.0989317120       -1.9218683795
 C        -7.3056898571        3.1641368651       -0.9129320789
 C        -7.1950408019        2.7811258811        0.6736247285
 O        -7.1331500203        1.6526948240        1.0435626309
 C        -6.8604070225        3.9496223104        1.6024691857
 C        -6.7015735683        3.6101337481        3.1029637423
 C        -6.0357071589        4.7618455051        3.8356405287
 O        -5.2520047350        5.5092218298        3.3030197837
 C        -6.4229631380        4.8145152094        5.3202582937
 C        -7.6800807385        5.7457640476        5.5041433924
 O        -8.7651152217        5.2099380709        5.6165245655
 C        -7.5941574691        7.2465953027        5.3348639673
 C        -8.8230476493        7.9225599812        4.6335658380
 C        -8.8818175235        7.5735246681        3.1647198875
 O        -9.2054631222        6.4499837172        2.7622084420
 C        -8.5384336186        8.7655243672        2.2205552975
 C       -10.0258860448        9.0724183057        1.6014013614
 O       -10.6906640815        9.8541106431        2.2143288932
 C       -10.5132369192        8.4126254514        0.2471682017
 C       -11.1446830452        7.0435460071        0.5568825388
 C       -11.4096856620        6.1487259620       -0.6621361445
 O       -10.7709360340        6.2934287519       -1.6528387244
 C       -12.6083108990        5.0186263124       -0.5483565836
 C       -12.5207599012        3.8098829953       -1.5866440261
 O       -12.4171172862        2.6849187699       -1.1176080887
 C       -12.6967114978        4.0859224234       -3.0958205922
 C       -14.1309776791        3.6387285390       -3.6120596801
 C       -14.1195259266        2.0922395069       -3.8758809190
 O       -13.1012916773        1.6371439205       -4.3577719553
 C       -15.2621237151        1.0726076541       -3.6841801057
 C       -15.0510608910        0.1374410262       -2.4642057777
 O       -13.9866381962       -0.3117890465       -2.1864206265
 C       -16.3291660902       -0.1973735372       -1.6102847829
 C       -16.6200516385        1.7971448885       -3.6368998268
 C       -15.3779683305        0.0969077905       -4.8705802230
 C       -12.8466363727        4.5722803790        0.8952588909
 C       -13.8902323723        5.8913350067       -0.9213247070
 C        -8.0295100166       10.0652136219        2.7960279721
 C        -7.7263205904        8.1847811598        1.0876213566
 C        -6.7864878791        3.4421538381        5.8823277809
 C        -5.2206965586        5.3825962339        6.1627690333
 C        -5.8844389185        3.5375433247       -1.3414747621
 C        -8.2083466200        4.4085400725       -1.0502748982
 C        -8.2560711126       -2.5617089187       -2.0455187816
 C       -10.6186057087       -2.3697004425       -2.5942501985
 H        -9.8544404447       -1.8550094733        1.3106951651
 H        -9.0145952642       -0.2861763467        1.2807225157
 H        -8.2499104404       -1.7056980125        0.5156502418
 H        -7.5683347054        0.6536529659       -4.3077648321
 H        -7.1718765068       -0.9047722529       -3.4439887579
 H        -6.1114731479        1.1498065180       -2.3164254302
 H        -7.0236847092        0.2411301794       -1.2967201791
 H        -7.5050529350        4.8074663518        1.5685139600
 H        -5.8672346906        4.3072722740        1.1985601949
 H        -6.0712178270        2.7374665174        3.2785915722
 H        -7.6419196336        3.4566017417        3.5358957773
 H        -6.6355840218        7.5230571589        4.8336009999
 H        -7.4274871827        7.7144637603        6.3471814667
 H        -8.8386197405        8.9992651164        4.8559508180
 H        -9.6866193533        7.4998864012        5.1013183989
 H        -9.6643756031        8.2832301463       -0.4508154521
 H       -11.2204717850        9.1025692166       -0.1887169941
 H       -11.9757362925        7.2654603217        1.1394648417
 H       -10.3098806903        6.5244730876        0.9914564128
 H       -11.9497080090        3.4248915336       -3.6357602296
 H       -12.5012254125        5.0745222626       -3.3501133566
 H       -14.3162447784        4.1056960442       -4.5778942158
 H       -14.9828514054        3.9013519930       -3.0169466553
 H       -17.0590588753       -0.5530870765       -2.3037113110
 H       -16.7974633196        0.7231673776       -1.2314423622
 H       -16.2923346189       -1.0817886618       -0.8751697063
 H       -16.6967025807        2.4950215813       -4.4362439766
 H       -16.5985769200        2.2990941254       -2.7087718767
 H       -17.4455753377        1.0367284544       -3.7489635538
 H       -15.2409106124        0.5548226548       -5.8414622551
 H       -16.3436721091       -0.4256198120       -4.9792178837
 H       -14.6530245776       -0.6754338448       -4.9081959366
 H       -12.0346918129        4.1385237261        1.3743270639
 H       -13.6785597849        3.9036681713        0.8877488643
 H       -13.2531093185        5.3958099028        1.4870464545
 H       -13.8230522493        6.2482738192       -1.9594905277
 H       -13.8797552718        6.8185553375       -0.3383383515
 H       -14.8751872504        5.4552459537       -0.7714984045
 H        -7.7621206736       10.6967021791        1.9147383850
 H        -7.0569399675        9.9300184148        3.3168572965
 H        -8.7010344271       10.4840448314        3.4678391981
 H        -8.0852847727        7.2452815901        0.6826212373
 H        -6.6910702695        8.0189912424        1.2864829372
 H        -7.6317038545        8.9393504415        0.3409372725
 H        -5.9106782583        2.7891388272        5.9949642629
 H        -7.6188519174        2.8310672624        5.4066102082
 H        -7.0100152917        3.4755754138        6.8910519764
 H        -4.4279096979        4.6481811734        6.3125746000
 H        -5.5138572290        5.8483815079        7.0660676040
 H        -4.7470428612        6.1619902440        5.5684449948
 H        -5.7717438372        3.8163973741       -2.3709268517
 H        -5.2141115223        2.6678571346       -1.3555606935
 H        -5.4900577128        4.3295021201       -0.6754294008
 H        -7.6612067443        5.2449781558       -0.5739332143
 H        -9.1897057576        4.2960011686       -0.6828301080
 H        -8.3609731294        4.6913183851       -2.1190522222
 H        -7.2700225771       -2.1207721215       -1.8356126208
 H        -8.2077013974       -2.9980899639       -3.0183028256
 H        -8.4174319885       -3.3676494072       -1.2445177746
 H       -11.4778672545       -1.7731468788       -2.5432270272
 H       -10.7805633621       -3.2848337523       -1.9530172809
 H       -10.3912795644       -2.6694790557       -3.5758514111
 Na      -11.8387923211        0.8945111586       -2.2657309929
