117

 C        -9.2914003643       -1.1460941276        0.2513588571
 C       -10.0016517183       -1.1539249419       -1.0760882683
 O       -11.1238870400       -0.6657043011       -1.1244427192
 C        -9.4057025105       -1.7044950912       -2.4760328659
 C        -9.1337283418       -0.4101327014       -3.3418948537
 O        -9.9915862657        0.3041597962       -3.8449265239
 C        -7.6582355381        0.1574220963       -3.4379454535
 C        -7.1874259341        0.6958795090       -2.0857907658
 C        -7.9589665638        1.9583104839       -1.6822944391
 O        -9.0671265514        2.2279312887       -2.0962714077
 C        -7.1362820272        3.0803897394       -0.7911681962
 C        -7.1729082469        2.6216350871        0.7089484664
 O        -7.7856412800        1.6018535000        0.9815330992
 C        -6.2929421970        3.3005578361        1.7776301881
 C        -6.7677949904        3.2213823028        3.2781062854
 C        -6.4276971335        4.5288780283        4.0197846959
 O        -5.9371695797        5.4728795865        3.4730592792
 C        -6.5577915423        4.6832129183        5.6255252039
 C        -7.8993294140        5.4476926488        5.6669704827
 O        -8.8877031031        4.8256653808        5.9127252550
 C        -7.8886405095        7.0293634823        5.4671385062
 C        -9.0647022899        7.5056904270        4.5592635078
 C        -8.7851934776        7.3875181178        3.0585003202
 O        -8.8938061013        6.3355682598        2.4759497531
 C        -8.5398886045        8.6921680487        2.1370199096
 C        -9.9750867942        9.1281273615        1.6100395839
 O       -10.6806890045        9.8444231774        2.2958302288
 C       -10.5450377109        8.5545525390        0.3046281008
 C       -11.3783191283        7.2991630972        0.6459949973
 C       -11.4348234581        6.2825397565       -0.5329393529
 O       -10.7129230862        6.3204874020       -1.5156896951
 C       -12.6284154909        5.2154082070       -0.3705370505
 C       -12.4934893634        4.1179499344       -1.4445186711
 O       -11.9970807592        3.0350284310       -1.1971421278
 C       -13.1684155328        4.5190909686       -2.8637309501
 C       -14.3598715479        3.5763611338       -3.1050751343
 C       -14.0940090447        2.2943328351       -3.9031322779
 O       -13.0378022435        2.0956871566       -4.4113033704
 C       -15.2516394265        1.1604198568       -3.8731194041
 C       -15.1335412527        0.4652825542       -2.5175858268
 O       -13.9774181502        0.0796100228       -2.2467876829
 C       -16.2043708181        0.1592681355       -1.5033045461
 C       -16.6463561386        1.8324562787       -3.9206462071
 C       -15.1430916868        0.1148709178       -4.9553001930
 C       -12.5971437120        4.5309362293        1.0416484798
 C       -13.9434783334        5.8574316520       -0.5433261439
 C        -7.8870605678        9.9229075454        2.9456261949
 C        -7.5085426554        8.3788689090        0.9842673316
 C        -6.6447916054        3.3901640706        6.4733316826
 C        -5.4001472155        5.5043117500        6.0689586281
 C        -5.7254270534        3.3540784206       -1.3466778227
 C        -7.9026727751        4.4018957235       -0.8880130579
 C        -8.1381044127       -2.4937124767       -2.1514796436
 C       -10.6097964163       -2.5291697781       -3.1127108499
 H        -9.2326171505       -0.1458184112        0.6115147518
 H        -8.3276475328       -1.6950171020        0.4407803443
 H       -10.0169982003       -1.5551341781        1.0740822953
 H        -7.6056838749        0.9394798544       -4.2272559291
 H        -6.8765276725       -0.5854036348       -3.7486020579
 H        -6.1520919883        0.9549572673       -2.2977703555
 H        -7.2187969310       -0.1558339053       -1.4139287188
 H        -5.9352724843        4.2951389348        1.4249640793
 H        -5.3677344387        2.7123818288        1.6996494012
 H        -6.3543546082        2.3984205687        3.7133618852
 H        -7.8655701679        3.0965148075        3.3335892084
 H        -6.9488453252        7.3607884437        4.9144064300
 H        -7.7266100479        7.5677687341        6.3988893496
 H        -9.2570733163        8.5611950544        4.7688597256
 H        -9.9328416719        6.9364001251        4.8631477387
 H        -9.7771649486        8.1956078273       -0.3747365467
 H       -11.0115395040        9.3602434978       -0.2331093694
 H       -12.3546105262        7.6032388576        0.9961321403
 H       -10.8205606380        6.7123620931        1.3753207886
 H       -12.4189623118        4.4243041258       -3.5690390488
 H       -13.4930841833        5.5846251380       -2.8212710065
 H       -15.1504996295        4.0916755070       -3.6378715682
 H       -14.8154694213        3.2223997401       -2.1847963716
 H       -16.3439509369       -0.9718169200       -1.3770277803
 H       -17.2002691396        0.5556470470       -1.7923910716
 H       -16.0032584084        0.5345581574       -0.5100044286
 H       -16.5945800342        2.4984925148       -4.7633326763
 H       -16.9714179536        2.3167049274       -2.9932253058
 H       -17.2337733857        0.9959559925       -4.0831247616
 H       -15.6863648723        0.4627111450       -5.8393723561
 H       -15.5952269034       -0.8182238778       -4.7120329072
 H       -14.1816286687       -0.1782717441       -5.3702723463
 H       -11.5407725859        4.3318059884        1.2282500699
 H       -13.0784463863        3.6036000609        0.9683573880
 H       -12.9457025725        5.1430718418        1.8215909308
 H       -14.0784247781        6.3413805341       -1.5120708880
 H       -13.9878531323        6.6871871349        0.1962399472
 H       -14.7723053178        5.2104710486       -0.4419529441
 H        -7.6631503372       10.7615536700        2.3024045072
 H        -7.0324890028        9.6085323171        3.4720567405
 H        -8.6300594805       10.3361179539        3.7012875307
 H        -7.5828945976        7.3238280342        0.7309373749
 H        -6.4624992228        8.4406512407        1.2992703154
 H        -7.6619312378        8.8791980498        0.0162690089
 H        -5.8766004107        2.6661955389        6.3124592126
 H        -7.4885966631        2.7522013577        6.3069964380
 H        -6.7897458083        3.7776650860        7.5194335546
 H        -4.5558260567        4.9008962018        6.2093351543
 H        -5.5562603472        5.9114446236        7.1102956174
 H        -5.1726401524        6.2956815009        5.3901800775
 H        -5.8464271123        3.9577331115       -2.2471699475
 H        -5.0695697220        2.4980562780       -1.5659638141
 H        -5.0739200057        3.9888027640       -0.7099118761
 H        -7.5060669628        5.1407001418       -0.1647886576
 H        -9.0188782481        4.1923661513       -0.7314465812
 H        -7.7350602647        4.9188753911       -1.8146620927
 H        -7.4078589700       -1.8040673367       -1.7595885025
 H        -7.7181713981       -2.9566131777       -3.0980582275
 H        -8.3959760866       -3.2972963829       -1.5278700011
 H       -11.4380849480       -1.8643792468       -3.3660603784
 H       -10.8504098502       -3.2959391566       -2.4801406976
 H       -10.2534764478       -2.9280368565       -4.0561571683
 Na      -11.6643487836        1.1437603130       -2.5362987185
