117

 C        -8.7508487061       -1.4520613943        1.2401365602
 C        -9.5558726349       -1.1194892205        0.0148678240
 O       -10.4616233420       -0.3235070912        0.0985110044
 C        -9.3269894119       -1.9957540655       -1.2621355344
 C        -9.1753784683       -0.9521011811       -2.3912602298
 O       -10.1160141591       -0.6182906515       -3.0957491631
 C        -7.8002664976       -0.2065337174       -2.5639350939
 C        -7.5979658115        0.8175237691       -1.4233184122
 C        -8.2577378736        2.1186653056       -1.7872081279
 O        -9.3181273862        2.2089163508       -2.3923146919
 C        -7.6912314689        3.5152143210       -1.3139190095
 C        -6.9582096382        3.3482737844        0.0263238599
 O        -6.2989675332        2.3782690060        0.2578863310
 C        -6.9196111493        4.5279783905        1.1028608772
 C        -6.8025450651        3.9719599760        2.5779488362
 C        -6.1025307895        5.0124548280        3.5303283358
 O        -5.2927417631        5.7969314372        3.1163063786
 C        -6.2891349974        4.8702353521        5.1889166495
 C        -7.4303685796        5.8346006506        5.5394114622
 O        -8.4870943103        5.5193740566        6.0315015418
 C        -7.2915940781        7.3594225667        5.0365416760
 C        -8.6332516349        7.8530815507        4.3793955588
 C        -8.5771625529        7.6428882648        2.8683940592
 O        -8.7511019149        6.5292799796        2.4034497585
 C        -8.4887256464        8.8866497465        1.8221798614
 C        -9.9783350238        8.7774077369        1.1860896370
 O       -10.8413944369        9.4312052195        1.6564535941
 C       -10.3002232256        7.6887621049        0.1474606494
 C       -11.7779626492        7.2046015411        0.3312747287
 C       -12.1482837792        6.3135126344       -0.8430539551
 O       -11.6810374704        6.5465006121       -1.9428575373
 C       -13.2022944755        5.2032481147       -0.7178622261
 C       -12.8133915551        3.8958858806       -1.4700532909
 O       -12.7367903238        2.7998065997       -0.9098397495
 C       -12.5178381670        3.9630109180       -2.9396770674
 C       -13.6539965512        3.4200510366       -3.9102708295
 C       -13.8240322885        1.8945216565       -3.8295489625
 O       -12.8471092178        1.1839215530       -3.9358447837
 C       -15.1565448689        1.1112941068       -3.5558444976
 C       -14.9451779141       -0.0246857897       -2.4346488689
 O       -13.8925241455       -0.0831104347       -1.7923062569
 C       -16.0950094033       -0.9501501237       -2.1066137764
 C       -16.4046381534        1.9548736344       -2.9616547759
 C       -15.4214314752        0.3094596493       -4.8503076314
 C       -13.5117869503        4.8387219986        0.7474708739
 C       -14.4410868393        5.7419266160       -1.5240213520
 C        -8.2420485025       10.1987151474        2.4773942041
 C        -7.3145328691        8.5956279207        0.8036999152
 C        -6.6545786802        3.3812852363        5.6887440878
 C        -5.0318942895        5.4774829986        5.9006381678
 C        -6.5751449228        3.7892583461       -2.3684048198
 C        -8.7910813990        4.6070496672       -1.2128844137
 C        -8.2217450652       -3.0504467125       -1.2901318639
 C       -10.6844469654       -2.7602371517       -1.4485093793
 H        -7.6371118155       -1.3205657773        0.9897771824
 H        -8.8197674170       -2.5817944793        1.5176967579
 H        -8.9700588433       -0.9047600880        2.1647467747
 H        -7.7532633660        0.2580433702       -3.5679378369
 H        -6.9833281819       -0.9626999826       -2.5940314658
 H        -6.5187149211        1.0401951829       -1.3478614843
 H        -8.0025720212        0.4203032323       -0.4618510547
 H        -7.8353974077        5.1707924456        1.0670581523
 H        -6.0255306217        5.1052527970        0.9887746950
 H        -6.2135686928        3.1050543278        2.5258112241
 H        -7.7315583534        3.5824153616        3.0425734830
 H        -6.5199882718        7.4880307188        4.2143631787
 H        -7.0837273666        8.0058953357        5.9008341520
 H        -8.8319672590        8.9115761280        4.5406686484
 H        -9.5091096738        7.3267871239        4.7225721905
 H        -9.5612004184        6.8737118994        0.2881853518
 H       -10.1887788074        8.1508498490       -0.8104795687
 H       -12.5189572102        7.9973033163        0.3066769887
 H       -11.9034534870        6.8457661474        1.3380675325
 H       -11.6421104064        3.3618416662       -3.2082838444
 H       -12.3308552266        4.9596165121       -3.3749335454
 H       -13.3935942086        3.5857925102       -4.9440491534
 H       -14.5851891717        3.8956007249       -3.6516073306
 H       -16.3224593471       -1.5712858863       -2.9241935928
 H       -17.0426010689       -0.4356342208       -1.7908905566
 H       -15.8587636098       -1.5325052324       -1.1719470622
 H       -16.6364411074        2.8228509850       -3.5804684875
 H       -16.2730442897        2.3456691547       -1.9284355922
 H       -17.3047383230        1.3483925139       -2.8490210666
 H       -16.0182221550        0.9375667958       -5.5546686369
 H       -15.9370941757       -0.6545546430       -4.7582801757
 H       -14.5510718807        0.0547343575       -5.4193651318
 H       -12.5933306708        4.4426224460        1.2036339907
 H       -14.2117087721        4.0537584593        0.7466551541
 H       -13.7739127104        5.6980335377        1.4034823443
 H       -14.2003596209        6.1272076827       -2.5334722905
 H       -14.8626930066        6.6428044495       -0.9818409370
 H       -15.1878438750        5.0365257939       -1.6650710575
 H        -7.9659036938       10.9385031431        1.6469208179
 H        -7.3063364997       10.0914971027        3.0650736861
 H        -9.0723503730       10.6333761532        3.0434544438
 H        -7.1408764922        7.5850678454        0.5073453898
 H        -6.4321579028        8.8676233271        1.3584322111
 H        -7.3744046788        9.1756664004       -0.0966812559
 H        -6.0024281292        2.6459768563        5.2406078989
 H        -7.6811886320        2.9964633908        5.3128811356
 H        -6.6856547486        3.4390806901        6.7278273443
 H        -4.0741278473        5.1486552443        5.6669386247
 H        -5.1113136063        5.3637314302        7.0188845920
 H        -5.0201442238        6.5379474254        5.6923501083
 H        -6.8812197769        3.9067811042       -3.3974680844
 H        -5.8826381479        2.9369190902       -2.2094168507
 H        -6.0400299070        4.7375148889       -2.0450944102
 H        -8.3250662071        5.5557083010       -1.0580818773
 H        -9.4372866718        4.4138432384       -0.4016754056
 H        -9.3271721699        4.6574328145       -2.1258069428
 H        -7.2611846139       -2.6011970981       -1.0886540106
 H        -8.0955263002       -3.4184811883       -2.3448869698
 H        -8.3576716039       -3.9294230645       -0.6496339676
 H       -11.5141444853       -2.0933685102       -1.5553235420
 H       -10.8591391217       -3.5353380082       -0.6277557417
 H       -10.6746250777       -3.2714344902       -2.3931153608
 Na      -11.6283131022        0.8801530191       -1.6410382898
