117

 C        -9.5391895730       -1.5056928140        1.9689077147
 C        -9.9695093834       -0.9965259868        0.5668836360
 O       -10.7744992526       -0.1222651435        0.4919985705
 C        -9.4400147460       -1.7922691353       -0.7537280588
 C        -9.6841092436       -0.9774294725       -2.0599722388
 O       -10.8087548505       -1.0550463799       -2.5898670778
 C        -8.4829215869       -0.4180808662       -2.9010419867
 C        -7.5305464867        0.5921697269       -2.2405117633
 C        -8.3033852635        1.8442506189       -1.7683425399
 O        -9.4371289664        1.8122965395       -1.3955950357
 C        -7.5073443367        3.1493129639       -1.5112940211
 C        -6.8274057319        3.0420466301       -0.1609341465
 O        -6.6386996451        1.9211500665        0.2967169974
 C        -6.4267708958        4.2883641415        0.6325489000
 C        -6.3061793867        3.9257220718        2.1238735632
 C        -5.9984705638        5.1676574680        3.0441710549
 O        -5.7388314486        6.2956048083        2.6090415378
 C        -6.1063862413        5.0020558364        4.5659412701
 C        -7.3575957483        5.9760243852        4.9132337822
 O        -8.4618315910        5.5122149114        5.1043887047
 C        -7.1107528916        7.4982296872        4.9127605607
 C        -8.3659971920        8.2426712474        4.4779428676
 C        -8.7071945017        7.9580332817        2.9636828264
 O        -8.8317997604        6.7935837991        2.5962784793
 C        -8.7770397047        9.1485699999        1.9224455291
 C       -10.2901737463        8.8479494309        1.3563494982
 O       -11.1974094467        9.6269018352        1.6396372306
 C       -10.5617490267        7.6041764836        0.5033152643
 C       -12.0497187605        7.4340900601        0.1761207497
 C       -12.3382728610        6.5987176373       -1.0446457648
 O       -11.6899301369        6.7167318079       -2.0661591082
 C       -13.4457199598        5.3833520296       -0.9904257680
 C       -12.6241509688        4.1441393649       -1.6075267894
 O       -12.3214229149        3.2364703866       -0.8434529510
 C       -12.4862301156        3.9723787922       -3.1569704457
 C       -13.6907670255        3.1879326278       -3.6626591778
 C       -13.4486248285        1.6682728905       -3.5480186134
 O       -12.3381411994        1.1915184643       -3.6623068696
 C       -14.7186838096        0.7066390636       -3.2810272002
 C       -14.4101467605       -0.3778365573       -2.2061464570
 O       -13.5874335793       -0.2280759785       -1.3644583721
 C       -15.3388284613       -1.5824950466       -2.0778365630
 C       -15.8661611929        1.4139363448       -2.5737067146
 C       -15.1710574362        0.0475584074       -4.6643292137
 C       -13.8588104942        5.0220518609        0.4022991987
 C       -14.6134914017        5.9410010414       -1.9444166920
 C        -8.5773224860       10.5045677523        2.5277903195
 C        -7.8328274889        9.0563485340        0.7209737344
 C        -6.3416754256        3.5608256381        5.1343388449
 C        -4.7895237694        5.5388963299        5.2040137548
 C        -6.3960366564        3.3068273363       -2.5980278428
 C        -8.5743935279        4.2768029000       -1.4716360537
 C        -8.0011970093       -2.2599464674       -0.6303534200
 C       -10.2934998257       -3.1315917749       -0.8881591658
 H        -8.5171878411       -1.7000298765        2.1158314070
 H       -10.0512788901       -2.3019385026        2.3814921652
 H        -9.8077581340       -0.6753642311        2.6485675453
 H        -8.8131348331       -0.0637242347       -3.8772862815
 H        -7.8726721326       -1.3018408892       -3.0567136292
 H        -6.8394505471        0.8691711541       -3.0232187031
 H        -6.9915189868        0.2017695140       -1.4047042974
 H        -7.0814997457        5.1677325652        0.4790423526
 H        -5.4456643627        4.6510524462        0.2661779039
 H        -5.4433840870        3.3105509143        2.2867066831
 H        -7.2194877178        3.3854915868        2.3663127024
 H        -6.1638582255        7.7419374058        4.3850919730
 H        -6.8679967259        7.7830434142        5.8975057581
 H        -8.4388426031        9.3421223356        4.7072815197
 H        -9.2305001218        7.7823500296        4.9704573017
 H       -10.0089192592        6.7166571470        0.9569187317
 H        -9.9139506703        7.6551091281       -0.3624266525
 H       -12.4830635620        8.4529611088        0.0918372731
 H       -12.7062067434        7.0253721180        1.0174717302
 H       -11.6538370942        3.2698885959       -3.3583457630
 H       -12.3978348729        4.8884825664       -3.6595394194
 H       -13.8301595996        3.4947925889       -4.7350565549
 H       -14.6344339152        3.5213373680       -3.2247112942
 H       -14.8656551247       -2.4594619652       -1.4656184158
 H       -15.4599261604       -1.8749947326       -3.0914023070
 H       -16.2872689535       -1.4036018635       -1.5893985916
 H       -16.4478705410        2.1010744527       -3.1468519411
 H       -15.5429632321        1.9894904324       -1.7400627804
 H       -16.6431540464        0.6898385647       -2.2307712184
 H       -15.5192163719        0.9071663985       -5.2513257038
 H       -16.0607083750       -0.5958655631       -4.5241426105
 H       -14.4094287444       -0.4911144758       -5.1998619795
 H       -13.0442230811        4.6383080893        0.9687924886
 H       -14.5217046999        4.1669801901        0.2627962366
 H       -14.4828699030        5.7480493085        0.9553772615
 H       -14.1793420635        6.0344192472       -2.9377975736
 H       -14.9337158130        6.9682551835       -1.6360813357
 H       -15.5306407415        5.3942367715       -1.9935100337
 H        -8.8638579844       11.2402129046        1.7625703400
 H        -7.5329274357       10.6123680181        2.7962959820
 H        -9.1832731870       10.6824191084        3.3471200465
 H        -7.8904728500        8.0951853015        0.1760362983
 H        -6.8108943691        9.1869154776        1.1180525522
 H        -7.9529949469        9.9680568350        0.1307595164
 H        -5.3263593112        3.1405109495        5.0859708835
 H        -7.2100707396        3.0217437798        4.7339229887
 H        -6.4926496717        3.6756320560        6.2013369839
 H        -3.8828245977        5.0938995398        4.7665053106
 H        -4.7686515939        5.4595241456        6.2818031851
 H        -4.7720380033        6.6291242888        5.0233442039
 H        -6.7219225778        2.9340803005       -3.5247709249
 H        -5.5385644711        2.7234989803       -2.2606501356
 H        -6.0845660197        4.3629286494       -2.6307696461
 H        -7.9979080727        5.2382088739       -1.4388514825
 H        -9.2798374317        4.2194452313       -0.6328618453
 H        -9.1287468293        4.3301408803       -2.4828160649
 H        -7.3594488449       -1.4438948709       -0.3731364897
 H        -7.6715480703       -2.6458857706       -1.5590381190
 H        -7.7935310945       -3.0097266550        0.1811144288
 H       -11.3926942100       -3.0159425651       -1.0455861700
 H       -10.2706415148       -3.7421366238       -0.0389198654
 H        -9.8043001477       -3.7171203009       -1.7006048238
 Na      -11.6526195646        1.0676909656       -1.3272537350
