117

 C        -9.3490663895       -1.5774197191        1.6608771602
 C        -9.7520434886       -1.0719842942        0.2572339465
 O       -10.5150713472       -0.1501542757        0.1974674616
 C        -9.4109311524       -1.9861444442       -0.9812516288
 C        -9.4681216278       -1.1019263702       -2.3239267257
 O       -10.5762632574       -0.9204951028       -2.8331465171
 C        -8.2190867196       -0.3952414307       -2.8545225923
 C        -7.4981342217        0.6821997662       -1.9642090280
 C        -8.3416459454        1.9251541223       -1.6590354132
 O        -9.5182295142        1.9095862251       -1.5291716593
 C        -7.6176070495        3.3395808978       -1.4044614818
 C        -6.9406402990        3.1216593640        0.0695435638
 O        -6.4218728765        2.0068519627        0.2602497778
 C        -6.7466077089        4.3262067813        0.9102556264
 C        -6.4622544041        3.9890138026        2.3471263214
 C        -6.0880434980        5.1891305078        3.1690567143
 O        -5.6606227449        6.2220140045        2.6652833853
 C        -6.2462200658        4.9384179049        4.7338379403
 C        -7.3916331671        5.8912149902        5.1905440972
 O        -8.3533934790        5.3502198840        5.7107666106
 C        -7.3280180290        7.3922747959        5.0834075075
 C        -8.4876736142        8.1437127887        4.4719401791
 C        -8.5243746565        7.8296098748        2.8775258538
 O        -8.3218260925        6.6881409151        2.4726670495
 C        -8.7436236630        8.9355152549        1.8791732756
 C       -10.1704826572        8.8737110342        1.2989188310
 O       -11.0480241202        9.7168223025        1.5116390957
 C       -10.4613185294        7.7670055596        0.3130035250
 C       -11.9619269296        7.5394757273        0.1781172506
 C       -12.2879449062        6.6405481499       -0.9832659931
 O       -11.8171835734        6.8587369795       -2.0706111135
 C       -13.3456984441        5.3859692622       -0.8644082475
 C       -12.7373561922        4.0411148806       -1.4916936133
 O       -12.3484608846        3.1221459466       -0.7822703868
 C       -12.4144280946        3.9683787690       -3.0449353892
 C       -13.5286277552        3.2438751769       -3.7833510935
 C       -13.5990317216        1.7346047274       -3.5447492937
 O       -12.5670633987        1.1118246961       -3.7304965892
 C       -14.9149225993        0.9080598342       -3.2538926595
 C       -14.5689228532       -0.3629255148       -2.2150563971
 O       -13.5325010657       -0.4945426968       -1.6634184042
 C       -15.6941511301       -1.3242042883       -2.0706731988
 C       -16.1749080742        1.7106711747       -2.7128748144
 C       -15.1304385914        0.2067112524       -4.6418595646
 C       -13.8228089838        5.2147629232        0.5541035986
 C       -14.5300381867        5.7889626156       -1.7669026488
 C        -8.6057455187       10.3873881284        2.4929425158
 C        -7.7009474814        8.7261479903        0.8095222418
 C        -6.5689351856        3.4515489892        5.1155759436
 C        -4.9123923882        5.3824272134        5.3488349416
 C        -6.5126604192        3.8263359930       -2.5161139510
 C        -8.7110431869        4.5164993169       -1.3902238895
 C        -8.0669108782       -2.6740527908       -0.6724674596
 C       -10.5488089603       -2.9802896459       -0.9754175936
 H        -8.2324187075       -1.5402125979        1.8693962784
 H        -9.6851609123       -2.6192331945        1.9042991977
 H        -9.8727640343       -1.0272586257        2.4984928386
 H        -8.4658544563        0.0371234418       -3.8488319667
 H        -7.4652550593       -1.1554866190       -3.1410661327
 H        -6.6761834348        1.0049974676       -2.6296199648
 H        -7.1863525479        0.2643576648       -0.9925241567
 H        -7.5462788830        4.9819427440        0.7153594913
 H        -5.8223062836        4.8216450184        0.5164995272
 H        -5.6074076759        3.2747038190        2.2914885176
 H        -7.2796117422        3.5018770373        2.8002143747
 H        -6.3501571521        7.6768919139        4.6035884270
 H        -7.2054312673        7.7792463546        6.1269330475
 H        -8.3378348187        9.2275613860        4.5788848885
 H        -9.4442955203        7.9655945515        4.9226013938
 H        -9.9122456057        6.8523477804        0.5161881934
 H        -9.9369188145        8.0706695430       -0.5775532360
 H       -12.5353285169        8.4084460890        0.0989063848
 H       -12.3885785599        7.2172269937        1.1402377678
 H       -11.4314495856        3.4298055197       -3.2719741306
 H       -12.4610923503        4.9548672128       -3.4752793914
 H       -13.4702209793        3.3729853886       -4.8557610663
 H       -14.4216529830        3.7593843637       -3.4752556251
 H       -15.2709579256       -2.3849648668       -2.2936022647
 H       -16.5403748549       -1.2423950272       -2.7336562543
 H       -16.0391982314       -1.2558040924       -1.0524333286
 H       -16.5401038117        2.4863053143       -3.3932477390
 H       -16.0674432857        2.2302565889       -1.7874642050
 H       -17.0923935035        1.0646567301       -2.7054288249
 H       -14.5648888549        0.6147353113       -5.4747949446
 H       -16.1704579776        0.1310732205       -5.0144878328
 H       -14.7691304001       -0.8382808695       -4.4843939062
 H       -13.0219224530        5.1289766849        1.2688022715
 H       -14.6160512149        4.4294076929        0.6738701974
 H       -14.4233090504        6.0912779257        0.7865317675
 H       -14.1768769023        5.9381623335       -2.7857931368
 H       -15.0051187643        6.6853922648       -1.4059447634
 H       -15.3426958143        5.0303719800       -1.8953254286
 H        -8.5643273675       11.0708875151        1.6353385617
 H        -7.7274240395       10.6182633528        3.1574746123
 H        -9.4964633832       10.5211073017        3.1225973250
 H        -7.6113628471        7.6434947069        0.7310944835
 H        -6.7571486752        9.1327643838        1.1064701777
 H        -7.9197659952        9.1938747880       -0.1272181581
 H        -5.8569465220        2.7683740579        4.5936468999
 H        -7.5739732737        3.2508352192        4.9106213947
 H        -6.3057997550        3.4012669952        6.2084610623
 H        -4.0954033192        4.6160833843        5.4146697078
 H        -5.0855466479        5.7550787704        6.3032733288
 H        -4.4818353695        6.2038013196        4.7576158555
 H        -7.0383302470        4.1580264934       -3.4234140501
 H        -5.8639737448        3.0075299340       -2.8472677894
 H        -5.9359655057        4.5944483944       -2.0107373924
 H        -8.3025373314        5.4642005310       -1.3931902325
 H        -9.4242951456        4.3801928784       -0.6204893990
 H        -9.3066826211        4.4114525810       -2.2595887878
 H        -7.1878564748       -2.0367230779       -0.4796513276
 H        -7.7998373353       -3.1972812479       -1.5436281610
 H        -8.1295717467       -3.4435431186        0.1463757606
 H       -11.5718390627       -2.5029377015       -1.0316422776
 H       -10.5705459516       -3.6067250614       -0.1135198047
 H       -10.4788772684       -3.6338360306       -1.8943603200
 Na      -11.5126644359        0.8928970258       -1.6204027319
