117

 C        -9.6449344115       -1.4955522716        2.3285263443
 C        -9.9752714736       -1.0542633012        0.8988064381
 O       -10.9160506561       -0.2836786075        0.6927764596
 C        -9.3169886888       -1.8034328323       -0.3205698423
 C        -9.7564693918       -0.9899349637       -1.6649709236
 O       -10.9908874439       -0.9754451897       -1.9432063501
 C        -8.7676400197       -0.5866687958       -2.7318110251
 C        -7.7195484604        0.4966199835       -2.4639977002
 C        -8.2537042231        1.8697391604       -2.0223964848
 O        -9.4659710742        2.0246267075       -1.9199946283
 C        -7.2813824516        3.0397695710       -1.7498269167
 C        -6.6921640112        2.8079294611       -0.2586836710
 O        -6.6375648372        1.6705263946        0.2657740132
 C        -6.1690330454        3.9924056790        0.4646004550
 C        -6.3086550388        3.9134226414        1.9927911366
 C        -5.7484343443        5.1219095530        2.7641404777
 O        -5.1726174426        6.0439184115        2.2230940284
 C        -5.9367485244        5.1104183266        4.3605486074
 C        -7.2622229209        6.0842492526        4.7261933452
 O        -8.3279826552        5.5967712818        5.0375674937
 C        -7.0859198123        7.6126163312        4.7253667518
 C        -8.4011747461        8.3501913652        4.5154727996
 C        -8.8345453757        8.0444314940        2.9973263408
 O        -8.8589784642        6.9081729197        2.5867764721
 C        -9.1123547542        9.1977549345        1.9726024570
 C       -10.5890455740        8.9822460462        1.3326372685
 O       -11.5358476966        9.6087601732        1.7725863358
 C       -10.7039898904        8.0511387138        0.1449368760
 C       -12.1064286226        7.4258390992        0.0944044940
 C       -12.2679334528        6.3646931137       -1.0030268746
 O       -11.4719001307        6.3109217518       -1.9090998449
 C       -13.5581733964        5.4611366970       -1.0605081308
 C       -12.9761994510        4.1240977613       -1.6982246165
 O       -12.6924388732        3.2482523057       -0.8763335915
 C       -12.7001557385        3.9999039367       -3.2601242867
 C       -13.7572443985        3.0323844971       -3.8574975948
 C       -13.5714235891        1.6155390205       -3.4234757787
 O       -12.4272773977        1.1704747194       -3.3923952450
 C       -14.7423715565        0.5916959031       -3.2469906058
 C       -14.2908258204       -0.4667623930       -2.1684840342
 O       -13.8224345223       -0.0772041611       -1.1242770867
 C       -14.6083782986       -1.9419563643       -2.3247630568
 C       -15.9914597243        1.3541568245       -2.6086870988
 C       -15.1774099831       -0.0335694512       -4.6493166010
 C       -14.0484130415        5.1159885441        0.3681415766
 C       -14.6519056501        6.1568467996       -1.9706524169
 C        -8.9760587044       10.7261346567        2.5078757386
 C        -7.9974286799        9.0876189218        0.8609423853
 C        -6.0620302294        3.7078405666        4.9867500404
 C        -4.7134258635        5.9311147067        5.0017350549
 C        -5.9476832310        2.9730834073       -2.6639624727
 C        -8.0692476458        4.3771099942       -1.7253931954
 C        -7.7677358094       -2.0028602049       -0.2133210487
 C        -9.9335827197       -3.1699896626       -0.4172003685
 H        -8.9803050249       -0.7934225781        2.8372525142
 H        -9.1390157474       -2.4169067546        2.4166294546
 H       -10.4771010780       -1.4925608315        2.9102615330
 H        -9.3923419425       -0.2027938239       -3.5455482777
 H        -8.2475498365       -1.5078672961       -2.9825954715
 H        -7.2293892245        0.7235505810       -3.4243827740
 H        -6.8900523366        0.1764983162       -1.8431665132
 H        -6.6379970394        4.8478167984       -0.0081980279
 H        -5.0755016409        4.1611406011        0.2485680243
 H        -5.8131659537        2.9554068017        2.3251218011
 H        -7.3960069851        3.8425433987        2.2146027852
 H        -6.2664434596        7.8555548185        4.0197896445
 H        -6.7096518259        7.8867670489        5.6603302132
 H        -8.3627925618        9.4475174746        4.6678549783
 H        -9.1937292173        7.9616564312        5.1186216942
 H        -9.9624203420        7.2148878378        0.0188320482
 H       -10.4692806076        8.5958547882       -0.7493480852
 H       -12.8700145241        8.1769621751       -0.1743875238
 H       -12.3682516591        6.9811288752        1.1101899163
 H       -11.6483609020        3.6045090906       -3.3424884849
 H       -12.7417141090        4.9809049732       -3.6414228422
 H       -13.7547591796        3.0703593133       -4.9853177540
 H       -14.7551695951        3.4371270536       -3.6298138866
 H       -15.3190894551       -2.3159746732       -1.5578450252
 H       -13.6702989166       -2.4675779350       -2.3810058524
 H       -15.1008694982       -2.0712309146       -3.2473542693
 H       -16.3832813721        2.0748338287       -3.3012102433
 H       -15.8825601956        1.9151580360       -1.7108152216
 H       -16.7713137816        0.6030113419       -2.3144050045
 H       -15.0560499655        0.7002631899       -5.4228751959
 H       -16.1851078710       -0.4771490516       -4.6139567955
 H       -14.4365590711       -0.8236309318       -4.7942541219
 H       -13.4290082078        4.5209118452        0.9638972557
 H       -14.9893087346        4.5837786759        0.2720563421
 H       -14.2078645190        6.0305103482        0.8816484300
 H       -14.0787518860        6.8302340550       -2.5875542130
 H       -15.2191949024        6.8901059198       -1.3815058421
 H       -15.3389723685        5.5504430546       -2.5559045325
 H        -9.3172812156       11.4196773661        1.7329845736
 H        -7.9501395228       10.9363986217        2.8077329717
 H        -9.6722618197       10.9530001980        3.2903533305
 H        -7.8340911394        8.0571958958        0.5719434425
 H        -7.0843350939        9.4944992540        1.2638478321
 H        -8.3688879049        9.5803619411       -0.0192958695
 H        -5.3404650026        3.0800217737        4.4770000389
 H        -7.0571893872        3.4514898083        5.0283721507
 H        -5.7700661486        3.8703839047        6.0535925983
 H        -3.8010444198        5.3324828872        5.2032416618
 H        -4.9975929880        6.3965945348        5.9016274654
 H        -4.4884296461        6.7391384569        4.2938261852
 H        -6.1999548107        3.4462915966       -3.6048875584
 H        -5.5959949774        1.9343079004       -2.7403360146
 H        -5.1419733039        3.5992637495       -2.2259783715
 H        -7.5001940711        5.2532855204       -1.4079873569
 H        -8.9230802253        4.2625601086       -0.9806361727
 H        -8.4844490907        4.6271091383       -2.7290125515
 H        -7.3195016466       -1.0369781303        0.0751288573
 H        -7.3162969146       -2.4482665773       -1.0598037422
 H        -7.5439973199       -2.7314099578        0.6494421651
 H       -10.9823377536       -3.0760174562       -0.6006394625
 H        -9.8256426994       -3.7187803360        0.4517084928
 H        -9.5129905858       -3.7565657073       -1.1884921797
 Na      -11.8235537700        1.1820916037       -1.1988275475
