117

 C       -10.1038111443       -1.0893283190        2.7192305507
 C        -9.9364852487       -0.6332821848        1.2609549826
 O       -10.4358916054        0.3991411998        0.8160528630
 C        -9.1920365512       -1.5968246841        0.2903195991
 C        -9.7689262284       -1.1855503702       -1.1112574235
 O       -11.0162962088       -1.1433985946       -1.2108083163
 C        -8.9776298162       -0.8918783096       -2.3611926993
 C        -7.9093217208        0.2889082282       -2.4350080891
 C        -8.3667096245        1.6207152269       -1.8987331042
 O        -9.5355484278        1.8585644256       -1.6781387647
 C        -7.3349784976        2.7853084509       -1.7716308231
 C        -6.9108926290        2.7965175432       -0.2100198185
 O        -7.0514212727        1.7702932200        0.4976781096
 C        -6.2962777125        4.0497598354        0.3669615621
 C        -6.4737699444        4.1102231935        1.8576181254
 C        -5.4383665517        5.0385907795        2.5329881664
 O        -4.6355736147        5.6567977718        1.8917900880
 C        -5.5322798018        5.2182435159        4.0958224632
 C        -6.8545290464        5.9501911148        4.3568045734
 O        -7.8186443343        5.4015251732        4.8598216747
 C        -6.8239792904        7.4483095250        3.8814656682
 C        -8.2080509549        8.0433559993        3.8371497499
 C        -8.7345957237        8.1301348804        2.4066187076
 O        -8.5571632414        7.1869854990        1.6685119535
 C        -9.4910831066        9.5353071680        1.8377108149
 C       -10.9666988442        9.1645940491        1.2804621474
 O       -11.9467702518        9.5757715969        1.8089956127
 C       -11.0246586982        8.2943354426       -0.0071024395
 C       -12.2717971199        7.3543762976        0.1603737560
 C       -12.2843683133        6.2585672049       -0.9014583228
 O       -11.4096826117        5.9425159246       -1.6578688790
 C       -13.6705704827        5.4572518074       -1.0826124376
 C       -13.1880536445        4.0984591180       -1.6317038586
 O       -13.0060068385        3.1858877984       -0.8296299075
 C       -12.9120758383        3.9053922119       -3.2389688505
 C       -13.9699116848        2.9439034508       -3.7961955937
 C       -13.6026371888        1.4964520832       -3.4973463319
 O       -12.4258441897        1.1829171266       -3.6393793719
 C       -14.6904183263        0.3924970544       -3.2585103889
 C       -14.0388187008       -0.6045681101       -2.2369462266
 O       -13.7033525965       -0.1271215698       -1.1839003835
 C       -14.0417587300       -2.0854285496       -2.4425826892
 C       -15.8862890563        0.9675375276       -2.5460688423
 C       -15.1895487102       -0.1788513908       -4.6214527241
 C       -14.4794059192        5.1701568414        0.2452331537
 C       -14.5784312570        6.2556779327       -2.1094746276
 C        -9.6693583357       10.5799838131        2.9230487643
 C        -8.6390147674       10.0827580333        0.6340839740
 C        -5.5109856964        3.8864900674        4.8459319998
 C        -4.3307850748        6.1811672881        4.6703980185
 C        -5.9634412079        2.4636836832       -2.4383173174
 C        -8.0706577073        4.0866657243       -2.1862719289
 C        -7.6513725108       -1.3594476162        0.5209745268
 C        -9.4833437841       -3.0718272640        0.4911043680
 H       -10.9591223121       -0.4877676196        3.1993801189
 H        -9.1467083046       -0.8848350336        3.3354529923
 H       -10.3084357071       -2.1113319731        2.9091281962
 H        -9.7287769561       -0.6216934688       -3.1085376899
 H        -8.5275197748       -1.8182254509       -2.7193265016
 H        -7.6609553842        0.4670411754       -3.4907058340
 H        -6.9188783452        0.0867442824       -2.0106190284
 H        -6.9052843273        4.8749754738       -0.0446270314
 H        -5.2976838008        4.1828549297        0.0093237208
 H        -6.3660358199        3.1629418921        2.3426245179
 H        -7.4545177782        4.4311759358        2.1842692403
 H        -6.1995950318        7.5583620323        2.9404265377
 H        -6.4096942016        8.0002131364        4.7254155549
 H        -8.2687931104        9.0505393025        4.3211861958
 H        -8.8848936499        7.3411519630        4.3663075378
 H       -10.0793575268        7.6924651165       -0.0814031550
 H       -11.2524721956        8.9571157533       -0.8270591260
 H       -13.0652060278        8.0556869166        0.0696175329
 H       -12.1941136709        6.9993806375        1.1853957234
 H       -11.8791823414        3.4938530069       -3.4012195545
 H       -12.8446762963        4.8595470262       -3.6979861825
 H       -13.8945108853        3.1386662105       -4.8678229445
 H       -14.9211636806        3.2566354152       -3.4528707231
 H       -14.6087475159       -2.2600652482       -3.3885254956
 H       -14.4917308419       -2.6356944238       -1.5786888806
 H       -13.0193621221       -2.4711345062       -2.5759081596
 H       -16.4294453751        1.5489246849       -3.2512040519
 H       -15.6062424542        1.5769195707       -1.7277785396
 H       -16.6780445478        0.2823143593       -2.2155533242
 H       -15.4225149202        0.6227678648       -5.3219124566
 H       -16.0990918322       -0.6819391586       -4.3134349035
 H       -14.3865202471       -0.8035702526       -4.9644397413
 H       -13.9175038730        4.6170805348        0.9721935829
 H       -15.4559341610        4.6777060296        0.0889070759
 H       -14.6647719541        6.1737339055        0.6164111683
 H       -13.8993813577        6.4666018636       -2.9191700160
 H       -15.0435051240        7.1832635100       -1.6921403712
 H       -15.3318511932        5.6297460687       -2.5287589717
 H       -10.2143493412       11.4198350544        2.5092490115
 H        -8.6935663247       10.9432765589        3.1892782143
 H       -10.0474345718       10.1765890496        3.8305930031
 H        -8.3025989228        9.2909563934       -0.0551872505
 H        -7.7833279288       10.6345278234        1.0768555417
 H        -9.2324011023       10.8739483116        0.1572454013
 H        -4.9404668790        3.1590944707        4.2164002616
 H        -6.4696901857        3.5127502226        4.9345815978
 H        -4.9332538670        4.1747768518        5.7724768723
 H        -3.3564125954        5.6732633966        4.7653297213
 H        -4.6764350720        6.6397510758        5.5703890844
 H        -4.1433714024        6.9444780346        3.8875073566
 H        -6.1138744708        2.3272989756       -3.4900738083
 H        -5.5228739081        1.5470587420       -2.0251040661
 H        -5.2424295770        3.2918244611       -2.2462722001
 H        -7.4432008758        4.9747722033       -2.1471999640
 H        -9.0180855461        4.2076557474       -1.5604561995
 H        -8.5350005521        4.0331148413       -3.1878844126
 H        -7.3436310488       -0.5388228748       -0.0777772537
 H        -7.0504735592       -2.1815099020        0.3362607854
 H        -7.6546765631       -1.0908224277        1.5990902171
 H       -10.5904339404       -3.2287061673        0.5786414502
 H        -9.0121137169       -3.3600404232        1.4558815365
 H        -9.1390583669       -3.7572522086       -0.3412656631
 Na      -11.7062761424        1.2218998006       -1.1429605168
