117

 C       -12.0087895951        7.3621777791       -1.0001052499
 C       -12.3858582940        6.7134411768        0.3854396311
 O       -12.7213103674        5.5002679466        0.4966306616
 C       -12.0526892901        7.5424061153        1.8036153890
 C       -12.4617715854        6.7207360372        3.0832692146
 O       -11.8436539978        5.6845629835        3.3364350872
 C       -13.6038180961        7.0523025146        4.0079336142
 C       -14.0208193635        5.8771717105        4.9479268531
 C       -14.4847415109        4.6475530942        4.2629066273
 O       -14.4445165291        4.5716408824        3.0665299445
 C       -14.9904044166        3.3911635256        4.9277891527
 C       -14.1644433841        2.1747862983        4.1367320361
 O       -13.0883700529        1.8636941503        4.5666801722
 C       -15.0041476290        1.6194058497        3.0191067068
 C       -14.3137836291        0.5332046193        2.0990706782
 C       -13.3836091468        1.1355082222        1.1279044866
 O       -13.0652270728        2.3372930420        0.9714189352
 C       -12.6837968008        0.1605092254        0.1886369511
 C       -11.4002540356       -0.4721817036        0.8092064753
 O       -11.6674252418       -1.2520653608        1.6788363043
 C        -9.9992462906       -0.1533677114        0.4344524141
 C        -9.1111491856        0.1033528244        1.7014854628
 C        -9.4024870542        1.5877597708        2.1453949844
 O       -10.5434646029        1.8257399709        2.4779750098
 C        -8.2233951214        2.5639359044        2.2053091318
 C        -7.8591283055        3.0072425940        0.8320912609
 O        -8.6243860916        2.8656790579       -0.0838215525
 C        -6.4784197515        3.6547330410        0.5463938917
 C        -6.2022967617        3.7225902803       -1.0455582826
 C        -5.8592873091        2.3171239592       -1.6506508540
 O        -5.3145756729        1.4966887808       -0.9464290990
 C        -6.0463733701        1.9662930863       -3.1640791543
 C        -4.8083079845        2.7015358627       -3.8717568847
 O        -4.0742929652        3.4883146415       -3.2052593158
 C        -4.4783608251        2.5219046667       -5.3158349957
 C        -4.4642318309        3.8875223977       -6.0635913992
 C        -5.3313640749        3.9673128586       -7.2646824998
 O        -6.1564214371        3.1025895318       -7.4900134057
 C        -5.3417844929        5.4002888258       -8.0047139795
 C        -5.8068158814        6.4580737813       -7.0075034214
 O        -6.4243965924        6.1696880550       -5.9924430572
 C        -5.5804031818        8.0143083752       -7.2664559329
 C        -3.8542079513        5.6948065571       -8.7592309872
 C        -6.4924490320        5.2357419433       -9.1073901658
 C        -5.8609358036        0.4948512301       -3.4504259984
 C        -7.4588951417        2.3527295681       -3.7536915275
 C        -8.6821179128        3.8599087550        2.9011300490
 C        -7.0431746096        1.9214652905        2.9414914386
 C       -13.5682715992       -1.1073251776       -0.2601495970
 C       -12.2825578093        0.7606643095       -1.2240050124
 C       -14.4095998252        3.3359137303        6.4449564426
 C       -16.5668502471        3.3509974536        4.9730856537
 C       -10.4037815316        7.6754381844        1.8416156180
 C       -12.6834195532        8.8532346066        1.8396716989
 H       -12.8573762973        7.2159843223       -1.7427518984
 H       -11.1703990402        6.7454840775       -1.2845559175
 H       -11.8429093346        8.4165072927       -0.9671735341
 H       -14.4047712157        7.2126295471        3.2903713203
 H       -13.4777003877        7.9542695930        4.4696183406
 H       -14.6706979694        6.1104046131        5.7758436145
 H       -13.1006797965        5.6456036305        5.5155394560
 H       -15.2055781736        2.4323549973        2.3530526375
 H       -15.9266541846        1.1878747955        3.3497430649
 H       -15.2122144293        0.1290664085        1.6213266999
 H       -13.7356906862       -0.2313259364        2.5700235429
 H        -9.8401047352        0.6843729130       -0.2806483589
 H        -9.7543577357       -1.0798355221       -0.0741544853
 H        -8.0053294379       -0.1805752270        1.5172604537
 H        -9.4963857670       -0.5116187349        2.4912444365
 H        -5.6580930910        2.9502148758        0.9638561194
 H        -6.2205976317        4.6262878044        1.1059889446
 H        -5.4169171812        4.4840375670       -1.1909077141
 H        -6.8961902497        4.4078774792       -1.6400489322
 H        -5.2624876471        1.9221976381       -5.8285496628
 H        -3.6269062106        1.8775723956       -5.5001450500
 H        -3.4259618295        4.2644843049       -6.1021436937
 H        -5.0591751037        4.6103195455       -5.4259027604
 H        -4.5556915748        8.2090502615       -6.8396822058
 H        -6.2580709456        8.6307623417       -6.6781532497
 H        -5.7045403129        8.3354147065       -8.3465830436
 H        -4.0816308475        5.7613689561       -9.8361164182
 H        -3.2145712957        4.8038171109       -8.4544777218
 H        -3.5376976120        6.7202307496       -8.3959594977
 H        -7.4613245174        5.1261439318       -8.6482184191
 H        -6.1582740388        4.3315095870       -9.6072164662
 H        -6.6185369914        6.0761601951       -9.7947453083
 H        -6.0228468599        0.2227326482       -4.4672808221
 H        -6.6730369953       -0.0391795065       -2.9248309148
 H        -4.9249473641        0.0802161048       -2.9801423123
 H        -7.5808431074        3.3505667605       -3.5366035235
 H        -8.3634585860        2.0352480840       -3.3262334585
 H        -7.4173760406        2.2950883766       -4.8730389472
 H        -7.9821918696        4.6513398512        2.6903255476
 H        -8.5983876957        3.6181604234        3.9360316805
 H        -9.6451170135        4.1160524385        2.5574108125
 H        -6.2382874231        1.6015720086        2.2512769965
 H        -7.2277848129        1.0114503451        3.5891453090
 H        -6.5505407153        2.5660433307        3.7184898465
 H       -14.4277850588       -0.8126406000       -0.8312966843
 H       -13.6360697020       -1.7566478154        0.5613236819
 H       -13.0017116782       -1.6956382603       -0.9417222564
 H       -11.4313594211        0.2761443314       -1.7181294689
 H       -12.0528043269        1.8032541110       -1.1158678366
 H       -13.2140182162        0.6047173550       -1.8549331947
 H       -15.1278094272        3.5435799706        7.2140953132
 H       -13.5710938365        3.9949050747        6.6071490028
 H       -13.9361875588        2.4409521103        6.7740487958
 H       -16.9993719935        4.1883725265        5.6129651831
 H       -16.7159754752        2.3999091064        5.4876180633
 H       -17.0876842597        3.2886602861        4.0221393478
 H       -10.0883955358        8.6511023176        2.0908267842
 H       -10.0649489471        7.4100375802        0.8178134666
 H       -10.0312909160        6.9131245138        2.5610503770
 H       -12.3183521208        9.4951764957        2.6171370420
 H       -13.7717649361        8.8499482968        1.8430364569
 H       -12.4160760665        9.4016556055        0.8805887865
 Na      -12.2894629074        3.6272819864        2.4546102818
