117

 C        -9.8538318249       -0.4761224792        2.9965755142
 C       -10.2308836262       -0.2318854924        1.5012662595
 O       -10.8950142015        0.6847351605        1.1551066440
 C        -9.4240242812       -1.2315530671        0.4920762543
 C        -9.7323782250       -1.1781299511       -0.9898646522
 O       -10.8993836637       -1.4029275689       -1.3689960353
 C        -8.6487345096       -1.1194524382       -2.1064899635
 C        -7.7691109897        0.1462742569       -2.2407629022
 C        -8.4012335507        1.4135608355       -1.8705021453
 O        -9.5458420999        1.6189970217       -1.6549927768
 C        -7.4217212256        2.6725359258       -1.7411099227
 C        -7.2372747780        2.9484918355       -0.2157576051
 O        -7.3367101851        1.9843124782        0.5565519854
 C        -6.6640338941        4.2479604605        0.3193233870
 C        -6.1393518125        3.9375895227        1.7394927211
 C        -5.1197840929        4.9942265602        2.3854998394
 O        -4.3577322749        5.6446976877        1.7245391435
 C        -5.2627983983        5.2889030530        4.0117535429
 C        -6.5706709811        6.0946680876        4.0959415654
 O        -7.5544040226        5.4895114451        4.4481153281
 C        -6.7544791397        7.5168487617        3.5224645761
 C        -8.2349472655        7.9268664870        3.5434449969
 C        -8.6330661594        8.4347264373        2.1128300107
 O        -8.0857805720        7.9180272406        1.1744838067
 C        -9.6528612022        9.6232337302        1.8318535445
 C       -11.0199710264        9.1168602455        1.4322804066
 O       -12.0714762468        9.5140647340        1.8418414609
 C       -11.0000342174        8.0197007111        0.3379353507
 C       -12.5115099199        7.3947857795        0.1368802972
 C       -12.4849504513        6.2968211842       -0.9730877602
 O       -11.4835781411        6.1154345147       -1.6307492822
 C       -13.7795294285        5.3466480433       -1.1193676606
 C       -13.0425280987        3.9875693745       -1.7689433269
 O       -12.8789760493        3.0583661811       -1.0178422486
 C       -12.7230508501        3.8415266054       -3.3114260284
 C       -13.7328402301        2.8601801235       -3.8564211766
 C       -13.4403977597        1.3496131859       -3.4782917756
 O       -12.2690803325        0.9822507550       -3.4611621515
 C       -14.6251691697        0.2945124641       -3.2005385357
 C       -13.9981466376       -0.8091945125       -2.1633101117
 O       -13.5374827283       -0.5511017883       -1.0822903447
 C       -14.1729372770       -2.2455762035       -2.4750157905
 C       -15.8533117441        0.8410358615       -2.4224606229
 C       -15.1354142421       -0.3655411840       -4.5851753624
 C       -14.4482029954        4.8900349807        0.1650430865
 C       -14.7378191134        6.1435174132       -2.0816356459
 C        -9.7695344080       10.5722983620        3.0671110770
 C        -9.0748159212       10.5120016188        0.7100974797
 C        -5.4378472649        3.9625671868        4.7885334751
 C        -4.0036772613        6.0813468561        4.4541059260
 C        -6.1027953555        2.4520754162       -2.4917113615
 C        -8.2064149858        3.9449880356       -2.3070580181
 C        -7.9224621715       -1.0290171373        0.8467733213
 C        -9.9527570642       -2.6702665799        0.8825564914
 H        -9.6231425505        0.5047670442        3.3136363668
 H        -8.9083111004       -1.0207236873        3.0911793684
 H       -10.4789888196       -0.9963136262        3.6837212308
 H        -9.1807840079       -1.3021039481       -3.0338588224
 H        -8.0069180235       -1.9804399720       -2.0652730363
 H        -7.5014192306        0.3354888545       -3.2640382562
 H        -6.8550403317        0.0368249980       -1.6771355143
 H        -7.5047855923        4.9900265280        0.2170755455
 H        -5.7829894751        4.5720442462       -0.2825215290
 H        -5.5001720685        3.0929769285        1.5994325698
 H        -6.8847910855        3.7211091851        2.4857822272
 H        -6.5236904054        7.4590723105        2.4269868461
 H        -6.0811945433        8.2017070668        3.9540073114
 H        -8.6596208788        8.6044300688        4.3285533710
 H        -8.7667981876        6.9532984123        3.6377190410
 H       -10.4139685885        7.0843429566        0.6739972410
 H       -10.7520712358        8.4567395700       -0.6235399588
 H       -13.3045778779        8.1223368858       -0.0967474237
 H       -12.7778212174        6.9975791621        1.1567218613
 H       -11.6606411105        3.4893800442       -3.3409102905
 H       -12.6954633101        4.7931348037       -3.7382646330
 H       -13.6540293421        2.8668948389       -4.9728331993
 H       -14.6698558312        3.2885390496       -3.5363720680
 H       -13.2696443862       -2.5615190776       -2.8872992771
 H       -14.9890166524       -2.4706393820       -3.2296322869
 H       -14.3002525202       -2.7760920904       -1.4757243091
 H       -16.4152181430        1.5665121193       -3.0122250729
 H       -15.6085661419        1.3256000066       -1.4845933927
 H       -16.6213432926        0.0129669092       -2.2390451887
 H       -15.7252467959        0.3101735574       -5.1615187974
 H       -15.6101523972       -1.2549085017       -4.2567709665
 H       -14.1561392877       -0.5889466576       -5.0027700324
 H       -13.7322682640        4.4012045902        0.7689302549
 H       -15.1906059369        4.1297230535       -0.1289235839
 H       -14.9347388329        5.6597739840        0.6582867763
 H       -14.1947074442        6.3929732325       -2.9636219379
 H       -15.2608884471        6.9827294609       -1.6124827820
 H       -15.5305055981        5.4545158270       -2.3486552546
 H       -10.4231889609       11.3694469455        2.8056143817
 H        -8.8397710856       10.8834591777        3.4921705159
 H       -10.2671534080       10.0318395534        3.8999498464
 H        -9.1498572898        9.8981420124       -0.1598566122
 H        -8.0576145172       10.7829382230        0.9068756091
 H        -9.5901748793       11.4330124028        0.6021451152
 H        -4.3999646319        3.5696223854        4.7463880308
 H        -6.2305076812        3.3243290409        4.5118494133
 H        -5.6092915546        4.2684630567        5.8947427565
 H        -3.1050479487        5.5852395809        4.0165185712
 H        -3.9218522901        6.0895819251        5.4918724083
 H        -4.1689625350        7.1089814847        4.1432239615
 H        -6.2913875983        2.4026834129       -3.5622624096
 H        -5.5624762051        1.5209560669       -2.2471487740
 H        -5.4262242502        3.3039283264       -2.2652663284
 H        -7.6785220489        4.9210542131       -2.0753622915
 H        -9.1977831416        3.9671715870       -1.7181329774
 H        -8.3592699674        4.0340829347       -3.4026347409
 H        -7.7893268433       -0.0662420430        1.3692504852
 H        -7.4408855547       -1.0589680802       -0.0768561767
 H        -7.5553510962       -1.9363790783        1.4027334333
 H       -10.9769210512       -2.7167415971        0.7969299353
 H        -9.7793031510       -2.9383142659        1.9432081552
 H        -9.4174876271       -3.3307717469        0.2923267522
 Na      -11.8465855942        0.9634745857       -1.0789129881
