117

 C        -9.4387583314        0.8249257782        2.7928447357
 C       -10.1541301873        0.0694909213        1.6229265810
 O       -11.2901688287        0.3955503205        1.3244875717
 C        -9.4557377996       -1.2318901998        1.0143379839
 C        -9.6279770147       -1.2638007184       -0.4967216315
 O       -10.6800918660       -1.3280739172       -1.0222367346
 C        -8.3241042400       -1.2239903999       -1.4290692509
 C        -7.6518841364        0.1681284759       -1.5206015295
 C        -8.4335709604        1.4467581449       -1.9151576717
 O        -9.5864129396        1.5020775802       -2.2440433111
 C        -7.6636479107        2.7800201923       -1.6750997754
 C        -7.2168966508        2.8192688408       -0.1953438857
 O        -7.8970736919        2.2469074364        0.6462194528
 C        -6.0582742065        3.8278588425        0.2019744233
 C        -5.8940996192        3.8940166806        1.7182952285
 C        -4.9874810264        5.0578780421        2.1417106795
 O        -4.2315882615        5.5573815129        1.3700582412
 C        -5.0526130026        5.5917778284        3.6662460407
 C        -6.4632584897        6.2134441867        3.6020576551
 O        -7.4345076120        5.6317692635        4.0561345038
 C        -6.6289712068        7.5812498004        2.8965562688
 C        -8.0593741073        8.1193369961        3.0073644610
 C        -8.5187327972        8.8893423670        1.8074126274
 O        -7.8906045636        8.8651445772        0.7797676243
 C        -9.8569820336        9.7757956685        1.8775951104
 C       -10.9802923579        8.7702706169        1.5925859055
 O       -11.9966195416        8.6824548387        2.2193111389
 C       -10.7943093772        7.7450061912        0.3840640722
 C       -12.1085000975        7.0228057838        0.1862261972
 C       -12.3098217876        6.1708030627       -1.0269980574
 O       -11.6518229541        6.1111195667       -2.0229006742
 C       -13.6137717709        5.2071357373       -1.1283633586
 C       -13.0852659882        3.7842357574       -1.4824389271
 O       -13.1011190653        2.8570969625       -0.6853222425
 C       -12.5139253617        3.4702854065       -2.8976106284
 C       -13.6294259395        2.6630705081       -3.6270382400
 C       -13.4075706083        1.1133680110       -3.4896014428
 O       -12.3280244911        0.5855135884       -3.5685039779
 C       -14.6413218830        0.1317784599       -3.3065325295
 C       -14.2220220162       -1.0129543170       -2.2784857102
 O       -13.6504175085       -0.6752896406       -1.2611826191
 C       -14.6819432041       -2.4917331862       -2.5493422871
 C       -15.7827778829        0.9873397749       -2.6343463380
 C       -15.0652044330       -0.3164036220       -4.7083011179
 C       -14.3883974769        4.9621647336        0.1685881111
 C       -14.6343661683        5.7802363289       -2.1976337891
 C       -10.1735258507       10.4950916821        3.1648797442
 C        -9.7851914618       10.7718061434        0.6723364923
 C        -5.1625113182        4.4772940708        4.7594507478
 C        -3.8498529418        6.6066232631        3.8444044698
 C        -6.4072435280        2.8146033402       -2.5725310417
 C        -8.4389622146        4.0441009625       -1.9141707075
 C        -8.0299307667       -1.5164345127        1.6395725970
 C       -10.4164399206       -2.4230025365        1.4665746239
 H        -8.6746831198        0.2269594823        3.4092842177
 H       -10.2523891587        1.1387495562        3.5338660299
 H        -8.9701442722        1.7503575037        2.4986909713
 H        -8.6797787465       -1.3970749803       -2.4290611586
 H        -7.5175434041       -1.9428993358       -1.2395953991
 H        -6.9378174537        0.0456247277       -2.3535450884
 H        -7.1228816281        0.4129464717       -0.5953465250
 H        -6.3943873663        4.7884018566       -0.1450677544
 H        -5.1762268452        3.6059097643       -0.3267994708
 H        -5.5269698166        2.9466761900        2.1059168631
 H        -6.8560633974        4.2274562076        2.1635785944
 H        -6.3365245115        7.4985344993        1.8336280076
 H        -5.7925444700        8.2882717175        3.2731589418
 H        -8.2155180525        8.7744990732        3.8611264678
 H        -8.7249327955        7.2672246021        3.2808158631
 H       -10.0254032369        7.0092982568        0.5272962494
 H       -10.4575339475        8.2879573246       -0.5404791835
 H       -12.8616174709        7.8301039923        0.0872452729
 H       -12.4985520271        6.5604000990        1.0564872018
 H       -11.6792939890        2.7917488282       -2.8755231873
 H       -12.2531348944        4.3943109358       -3.4972679827
 H       -13.4732611128        2.8181031273       -4.6725999665
 H       -14.6267699318        3.0592509540       -3.4890668047
 H       -14.5929549381       -2.8101748169       -3.6365396509
 H       -15.7512444897       -2.4217454746       -2.2890798113
 H       -14.1647814698       -3.1720677470       -1.8886972618
 H       -16.1291546598        1.8082126970       -3.2670799619
 H       -15.4749753759        1.4377557923       -1.6770402635
 H       -16.5542206300        0.3002073927       -2.3546862663
 H       -15.5512348966        0.5721259231       -5.1288462210
 H       -15.8679851821       -1.0298487700       -4.5083793859
 H       -14.2136199986       -0.7307846541       -5.1513996312
 H       -13.7604364050        4.4464325583        0.8534241821
 H       -15.2556510461        4.4151259886        0.0204683380
 H       -14.7001605484        5.9169758734        0.6290748492
 H       -14.0751456127        6.0429473984       -3.0910868379
 H       -15.0957084259        6.7318650203       -1.8664723154
 H       -15.2822270931        5.0187848132       -2.4562450535
 H       -10.9799827227       11.2429545809        2.9775477117
 H        -9.3776663615       11.1441416026        3.4481765149
 H       -10.5602315355        9.9026843662        3.9073393298
 H        -9.5200443670       10.3370820732       -0.2655773383
 H        -9.0506000549       11.5399817578        0.8383736812
 H       -10.7944115233       11.1188626191        0.5972867341
 H        -4.3168026907        3.6768307026        4.7429643114
 H        -6.1538227480        4.0978744136        4.6708386257
 H        -5.1298069599        4.8942312220        5.7998250527
 H        -2.9145861647        6.1296721821        3.7458087824
 H        -3.9275395254        7.0757591911        4.8604798546
 H        -3.8894843210        7.3489190614        3.0405243029
 H        -6.6625579449        2.8308158075       -3.6202361002
 H        -5.6965556347        1.9856547040       -2.3895166975
 H        -5.8348041453        3.7631565257       -2.4698115491
 H        -7.7406899512        4.8712961630       -1.7626762826
 H        -9.3134749102        4.2761076220       -1.1990405182
 H        -8.8407681275        4.0118320132       -2.9701230895
 H        -7.5514126830       -0.6094041765        1.9386819735
 H        -7.4258635568       -2.0752905720        0.9204928716
 H        -8.1502802380       -2.1221343463        2.5502197584
 H       -11.4310801616       -2.3754825767        1.0238060302
 H       -10.4162373409       -2.5311755297        2.5303937971
 H        -9.9548140317       -3.3437598512        1.0321964044
 Na      -11.9536795922        0.6826706422       -1.0905276552
