117

 C       -12.1628923909        7.3665966341       -0.9531723055
 C       -12.3849641996        6.7939302730        0.3962351542
 O       -12.7596606688        5.6430667707        0.4252865321
 C       -12.0699750375        7.5956127104        1.7513361503
 C       -12.4079392373        6.6849717836        2.9413710753
 O       -11.6189521293        5.8801370829        3.4004890609
 C       -13.7476176398        7.0420816610        3.7797891130
 C       -13.9534541985        5.9686556789        4.8808318192
 C       -14.5008569876        4.7156126407        4.1695488825
 O       -14.5398519311        4.5797839624        2.9585787630
 C       -14.9132282902        3.3520827854        5.0257677033
 C       -14.2789143329        2.2550556924        4.2186812258
 O       -13.0941184744        1.9383376802        4.4005822829
 C       -15.1153040803        1.7347655062        2.9818764292
 C       -14.5233208113        0.5441950811        2.0228153760
 C       -13.4457174867        1.0804769540        1.0950287126
 O       -13.2558450699        2.2751304810        1.1901355441
 C       -12.7075726154        0.1738514982        0.0919897889
 C       -11.4421762355       -0.3537431250        1.0042174119
 O       -11.7193348984       -1.1493783541        1.8643408986
 C        -9.9216554476       -0.1028425342        0.4680937633
 C        -8.8987927001        0.1199991043        1.6022273927
 C        -9.2979239117        1.5119209247        2.2236976695
 O       -10.5288744298        1.7424794907        2.2396876274
 C        -8.2088604788        2.5541110137        2.3741488946
 C        -7.7702878496        2.9295039093        0.7124166638
 O        -8.5898906849        2.7715271134       -0.0852023468
 C        -6.3543185471        3.4568246997        0.5438522763
 C        -6.1553739270        3.6842645109       -0.9578419002
 C        -5.7895512804        2.2887180906       -1.5916404955
 O        -5.4276923709        1.4091090688       -0.8556152348
 C        -5.9928410327        1.9763157744       -3.1978583087
 C        -4.6855915258        2.5663480655       -3.8846097260
 O        -3.9546526279        3.2955358322       -3.2398673316
 C        -4.5969867216        2.3990676575       -5.3921412877
 C        -4.5037424067        3.9410048166       -5.9380742149
 C        -5.3114920184        3.9465925441       -7.2324676959
 O        -6.0187868526        3.0199959400       -7.5516409229
 C        -5.3444877460        5.2432864456       -8.1008531983
 C        -5.8698674641        6.2781668400       -7.0693033944
 O        -6.5319991265        5.9519196982       -6.0983668187
 C        -5.5011661729        7.7547344746       -7.3085842621
 C        -3.9591685455        5.7720781375       -8.5872135427
 C        -6.2861114295        5.2777835626       -9.3572332898
 C        -6.0008052267        0.3724187200       -3.5320242145
 C        -7.1763591800        2.6993350613       -3.6517960213
 C        -8.8182167179        3.9456817233        2.8739180137
 C        -7.0610103565        1.9561445604        3.1970789262
 C       -13.5462215064       -1.1639519245       -0.1475863602
 C       -12.3482962111        0.8111607453       -1.3690216809
 C       -14.3271150073        3.3934015264        6.5192440150
 C       -16.4569385382        3.3593398220        5.1946955838
 C       -10.5139076863        7.6832648554        1.8162853173
 C       -12.6989410358        9.0085404252        1.9016890817
 H       -12.9854914146        6.8618572143       -1.5176065731
 H       -11.1453398977        6.9268445001       -1.3327600975
 H       -12.3413834278        8.4276850595       -1.0874048833
 H       -14.6984875916        7.2208684349        3.2617445143
 H       -13.4498819060        8.0047896110        4.1847105072
 H       -14.6331783295        6.2282134108        5.6984372193
 H       -13.0627947244        5.8160249018        5.3286747862
 H       -15.3551405350        2.5449069720        2.3284664454
 H       -16.0396195892        1.2108116354        3.2969451545
 H       -15.4941103055        0.2544815687        1.5836309907
 H       -14.1226289223       -0.2978623207        2.6553342751
 H        -9.7746195692        0.7509935345       -0.1341916492
 H        -9.7820589501       -1.0015589642       -0.0978726823
 H        -7.8669466110        0.2564122255        1.1440913226
 H        -8.8194137513       -0.7194666546        2.2930236444
 H        -5.5186794829        2.8639982209        0.9658471194
 H        -6.4016641196        4.3884957662        1.2813522304
 H        -5.4335334132        4.4916965726       -1.2346270558
 H        -6.9671221809        4.2936770673       -1.4436363183
 H        -5.3308699764        1.8651257299       -5.9304010076
 H        -3.7771245574        1.7679949075       -5.6768423470
 H        -3.4648341070        4.1719716733       -6.0775269370
 H        -4.9055881785        4.6748507219       -5.2073331917
 H        -4.4742142906        7.8123512745       -7.2824279138
 H        -5.9351957013        8.4580062709       -6.5580490305
 H        -5.9365896710        8.0753757636       -8.3272626569
 H        -3.7428172950        5.3582573274       -9.6412913316
 H        -3.3273559397        5.3201080083       -7.7825708429
 H        -4.0261963821        6.8818772049       -8.6885977365
 H        -7.3340628681        5.1217109935       -9.0925226526
 H        -5.9919988124        4.6398544109      -10.2605468369
 H        -6.2493326986        6.3045132406       -9.6337922407
 H        -6.5385633522        0.2436853805       -4.5484997439
 H        -6.4947457223       -0.2592866852       -2.8668540076
 H        -4.9759601385        0.0327619377       -3.6134851509
 H        -7.1052398230        3.6967400614       -3.1535073082
 H        -8.1419817688        2.4419351031       -3.1833599887
 H        -7.3552842275        2.8198718749       -4.6949445489
 H        -8.0937914782        4.7992314638        2.7340999952
 H        -8.9864210017        3.8440629553        3.8816754242
 H        -9.6485529292        4.1409928655        2.2146317086
 H        -6.4785690909        1.1242064119        2.7311336687
 H        -7.3637804572        1.6149570337        4.1487368699
 H        -6.3138335145        2.6970644790        3.5510748594
 H       -14.5455591644       -1.0427059549       -0.4393160020
 H       -13.2976851232       -1.7120432499        0.7385080094
 H       -13.1263149303       -1.7587046643       -0.9334681619
 H       -11.7306061508        0.2221130207       -2.0572660071
 H       -11.6849610280        1.6546816237       -1.1003300376
 H       -13.2990037179        1.1469431001       -1.7852852310
 H       -15.0409740698        3.7634508264        7.2830100371
 H       -13.3725232169        3.8778238463        6.6928456525
 H       -14.0203477621        2.4136458787        6.9684192707
 H       -16.9002751638        4.1085401548        5.8628512938
 H       -16.7822982373        2.3342971938        5.4493688683
 H       -16.8125650780        3.5808511225        4.2372039343
 H       -10.2259964118        8.4973196592        2.4813177810
 H       -10.1654231140        7.9069322216        0.8268200633
 H       -10.1549632724        6.7379798214        2.2184271948
 H       -12.2156195943        9.5759642045        2.7527482416
 H       -13.7889774095        9.0236396876        2.0123952897
 H       -12.4731620124        9.6599385887        1.0469259377
 Na      -12.3243985583        3.7062244496        2.5154358134
