117

 C        -9.3802951702        0.8573805696        3.1317991212
 C        -9.7505189452        0.3510845634        1.7538964066
 O       -10.1657348476        1.0813864490        0.8529676537
 C        -9.6443529116       -1.2102716398        1.5466002618
 C        -9.6292129715       -1.3683265862        0.0193494075
 O       -10.5884889857       -1.6655069167       -0.6261403880
 C        -8.3528140832       -1.2700261114       -0.8788178681
 C        -7.7367976976        0.1212194798       -0.8257664123
 C        -8.5700529891        1.3216013262       -1.3017939101
 O        -9.7012571342        1.2619847829       -1.7336382086
 C        -7.9736007857        2.7660312943       -1.2737048430
 C        -7.3009095903        3.0696488917        0.1209607854
 O        -7.8274832604        2.7025070250        1.1633358983
 C        -6.0418226694        3.9402338110        0.2074567653
 C        -5.5927348226        3.9914030319        1.6495351361
 C        -4.7196949473        5.2662499224        1.7760871908
 O        -3.9136811759        5.5625838535        0.9345641207
 C        -4.8128972647        6.1557049697        3.0984940281
 C        -6.2641676118        6.7659624653        2.9651064782
 O        -7.2265145822        6.1039415344        3.2891103069
 C        -6.4993789487        8.2344711647        2.4138330818
 C        -7.9060268458        8.7040543986        2.8255531642
 C        -8.6103129737        9.2825340514        1.6724638547
 O        -8.1345777265        9.2322585545        0.5523678039
 C       -10.1997404715        9.7438520295        1.6856381963
 C       -10.8914316172        8.3530131563        1.7330795729
 O       -11.0011815940        7.6860316293        2.7202622731
 C       -11.5208617452        7.7985907967        0.4430710832
 C       -11.9857476787        6.3070168808        0.5165038420
 C       -12.2055446471        5.7483779924       -0.8246734830
 O       -11.4541168371        5.9683590555       -1.7465141470
 C       -13.4696738064        4.8298126798       -1.0961537601
 C       -12.9026149748        3.3941785978       -1.6888564040
 O       -12.6756162206        2.4874922960       -0.8966561336
 C       -12.4493466273        3.2176382526       -3.1566087537
 C       -13.4456965815        2.4964404184       -4.1016321053
 C       -13.4584208013        0.9601311766       -3.6686126703
 O       -12.3872157563        0.4097913795       -3.5304607653
 C       -14.7983747646        0.1266714610       -3.5486472485
 C       -14.7359655930       -1.0220211721       -2.5019322549
 O       -13.8839605236       -1.1833414362       -1.6196251471
 C       -15.9118946539       -2.0855879742       -2.4700965811
 C       -16.0172802410        0.9982129033       -2.9816742004
 C       -15.0745231161       -0.2708090961       -5.0288810786
 C       -14.3144631673        4.5862019805        0.1273232679
 C       -14.2425162230        5.4976184025       -2.2564682755
 C       -10.3882726348       10.5274039344        2.9896180004
 C       -10.4436042618       10.6731852518        0.4148858610
 C        -4.7921378159        5.1881403227        4.3481284833
 C        -3.6887380226        7.1798685757        3.1958247593
 C        -6.8426417421        2.7151099528       -2.3690133416
 C        -8.9620861334        3.8631740243       -1.6756444018
 C        -8.3781770415       -1.6950015978        2.2595810101
 C       -10.8828044105       -1.9168319029        2.2018863949
 H       -10.3364624157        1.2128405197        3.5141098972
 H        -8.8610446127        1.8001884069        3.1350327302
 H        -9.0220212670        0.1294760573        3.7807076494
 H        -8.7186767138       -1.4743891002       -1.8927089211
 H        -7.5828797430       -1.9988205240       -0.5258074520
 H        -6.7447625589        0.2245533504       -1.3083039667
 H        -7.4618444164        0.3446425497        0.2205653093
 H        -6.3667029247        4.8893927204       -0.2638520976
 H        -5.2602848526        3.4755831923       -0.4632741631
 H        -5.0647502093        3.0870022665        1.9776224534
 H        -6.4128028852        4.1024586415        2.3414826429
 H        -6.4157244210        8.3696537852        1.3407815336
 H        -5.7521217070        8.8763062320        2.8742880748
 H        -7.8201081946        9.4903905536        3.5811858846
 H        -8.5227959413        7.8848540972        3.2185384960
 H       -10.9161458681        7.9331774018       -0.4396640728
 H       -12.2621135944        8.5912273387        0.1505732199
 H       -12.8727325712        6.2129037347        1.1783005699
 H       -11.2418005331        5.7595058883        1.0697727414
 H       -11.6504431974        2.5197726217       -3.1615392699
 H       -12.1540023656        4.1552360731       -3.6995288321
 H       -13.0321429930        2.5832983445       -5.1296887246
 H       -14.4941105904        2.9563077340       -4.1468649464
 H       -16.5650081479       -1.7446707210       -1.6851280208
 H       -15.4451172536       -3.0557387607       -2.2263098214
 H       -16.4420950775       -2.1337178487       -3.4170927908
 H       -16.3133495567        1.6743375400       -3.7667898000
 H       -15.8388418442        1.4932310488       -2.0367136624
 H       -16.8816637827        0.4162327841       -2.9271326829
 H       -14.9056321386        0.6885975711       -5.5366624509
 H       -16.1119569710       -0.6355160364       -5.0472915856
 H       -14.3111182549       -0.9406386280       -5.3271251521
 H       -13.9170631005        3.8691812530        0.8573787443
 H       -15.2754257215        4.2390508213       -0.1447401671
 H       -14.4275607401        5.5811721616        0.6672323319
 H       -13.5434678133        5.7658863139       -3.0546889725
 H       -14.7969729161        6.3909806381       -1.8846708787
 H       -15.0563420865        4.8997968184       -2.6153024492
 H       -11.4325153925       10.9796346546        2.9552172440
 H        -9.6193776078       11.3157541724        3.0999071978
 H       -10.2599801210        9.9585272926        3.8664577611
 H        -9.8820004420       10.3286707932       -0.4653386154
 H       -10.1101430765       11.6807916175        0.7118690205
 H       -11.4971417152       10.8960632107        0.1435770835
 H        -4.1144430072        4.3252633318        4.3008470486
 H        -5.6739717374        4.6688435173        4.3358609263
 H        -4.7080945338        5.7492033883        5.2600287876
 H        -2.7686287364        6.7241721223        3.4783616254
 H        -3.9327506831        7.9846081067        3.9781244811
 H        -3.5342586074        7.7353574490        2.2470426442
 H        -7.2308643239        2.5198517450       -3.3702029465
 H        -6.1445435925        1.8875048759       -2.2005527021
 H        -6.2156257709        3.5967949303       -2.4835994098
 H        -8.4595801715        4.7556153671       -1.7266177740
 H        -9.8523216524        3.8891793568       -1.0643852638
 H        -9.2790251694        3.6641007296       -2.6605002227
 H        -7.6072144314       -0.9856719330        2.0591022464
 H        -7.9764150173       -2.6174377448        1.7997363303
 H        -8.4088526161       -1.8375817644        3.3443567809
 H       -11.8295005982       -1.5217569150        1.7424561390
 H       -10.7759364247       -1.7087127423        3.3020188064
 H       -10.8882978823       -3.0569050955        2.0626613215
 Na      -11.7963786506        0.1990478010       -1.0813677963
