117

 C        -9.5589465996        1.0399196036        3.1474932815
 C       -10.1413426592        0.3204031973        1.8751620036
 O       -10.8200760379        0.8630687931        1.0757855067
 C        -9.8120791049       -1.2526266036        1.7378617184
 C        -9.6617230375       -1.5429824913        0.1365627721
 O       -10.6435340197       -2.0636177360       -0.3659520185
 C        -8.3890557838       -1.1854705688       -0.6626811526
 C        -7.7843347564        0.2062458690       -0.5080038866
 C        -8.5027985081        1.3361890609       -1.2612803699
 O        -9.4896284156        1.0873911312       -1.9390139165
 C        -7.9115217880        2.7348548867       -1.2647287782
 C        -7.2739737010        3.0541938525        0.1424421179
 O        -7.7552653680        2.4818179545        1.1145231117
 C        -6.1519601626        4.1631949672        0.1882041151
 C        -5.4930545330        4.2082944212        1.5308503657
 C        -4.6169832128        5.4719448988        1.7191206051
 O        -3.9679536380        5.8852309091        0.7966260403
 C        -4.7092576998        6.5009533332        2.9438350140
 C        -6.1807188297        7.0458057873        2.8322908347
 O        -7.1150138603        6.2799818247        2.9047869895
 C        -6.4826353721        8.5459469376        2.4809847733
 C        -7.9047481059        8.9719049445        2.6755619641
 C        -8.5718287605        9.3351108987        1.3976433917
 O        -8.1677249606        9.2649065497        0.2548969228
 C       -10.2104325015        9.5598583731        1.5767764649
 C       -10.7353725381        8.0900299347        1.8191725905
 O       -10.5040635051        7.4507077926        2.8273714078
 C       -11.6116581075        7.5703543754        0.6505476597
 C       -12.0057056675        6.0815986271        0.5910267839
 C       -12.1294794053        5.5209672733       -0.8116687562
 O       -11.4474228036        5.9095875009       -1.7085236730
 C       -13.3798056744        4.5712199506       -1.1729750695
 C       -12.7922679387        3.3231929340       -1.8533919895
 O       -12.8386452726        2.3579317981       -1.1207896761
 C       -12.1664407141        3.1437278900       -3.2596055484
 C       -13.3370183647        2.4210207873       -3.9569931727
 C       -13.4607524586        1.0006603615       -3.5366165750
 O       -12.4900209657        0.2979981438       -3.3464318474
 C       -14.8085543601        0.2411612456       -3.5189728881
 C       -14.7733801196       -0.9114444858       -2.4696097942
 O       -13.9331917242       -1.0605036821       -1.5802050154
 C       -15.9820738380       -1.8364402613       -2.4362533424
 C       -16.0276742183        1.2034845300       -3.3727033469
 C       -15.0613639755       -0.4900232592       -4.9347676163
 C       -14.1874994382        4.2291945870        0.1614233541
 C       -14.2365885242        5.4578055840       -2.1081248052
 C       -10.3647040944       10.2665581388        2.9137723500
 C       -10.8076160183       10.4593345910        0.4163610772
 C        -4.4393602340        5.7817527653        4.2359978177
 C        -3.5798750670        7.5271919908        2.8479021637
 C        -6.8321834103        2.6789282040       -2.4043436709
 C        -8.9550266835        3.8934525302       -1.5273625337
 C        -8.5359400252       -1.7553776523        2.4497935327
 C       -11.0221869986       -1.7917728850        2.4374592697
 H        -9.7828135174        2.1702193341        3.2121726262
 H        -8.4369221509        1.1133574305        3.1134263355
 H        -9.8545208813        0.4760003864        4.0251111225
 H        -8.7062428965       -1.2166809133       -1.7168234183
 H        -7.6584537808       -1.9846937381       -0.5243964512
 H        -6.7230524904        0.2513465827       -0.7885407201
 H        -7.7297739494        0.5607462889        0.5412344505
 H        -6.6799454518        5.0265668669       -0.0236913838
 H        -5.4619036675        3.9575918035       -0.6042639500
 H        -4.7491579407        3.3967026555        1.7931142752
 H        -6.2387058363        4.1520485065        2.3100148951
 H        -6.1529003539        8.7392208532        1.3839522125
 H        -5.8791514681        9.1627007231        3.1311163149
 H        -7.9016234454        9.8511994717        3.3524330606
 H        -8.4482975855        8.1290694250        3.0997919914
 H       -10.9952289331        7.7895036513       -0.2354651495
 H       -12.4704657621        8.1544707499        0.4146763372
 H       -12.9559049744        6.0090694761        1.1516037035
 H       -11.2936760744        5.4447042125        1.1242185846
 H       -11.2534360134        2.5497806381       -3.3136173859
 H       -12.0148004750        4.0663069756       -3.8550971737
 H       -13.1223182695        2.2101251817       -4.9769151411
 H       -14.2601258888        2.9944135488       -3.8076709179
 H       -16.2401336801       -2.0661925235       -1.3596070706
 H       -15.5404123728       -2.6843425939       -2.8929392992
 H       -16.8572802730       -1.5232706328       -2.9984332503
 H       -16.1369609671        1.8914479362       -4.2527250041
 H       -15.8512359872        1.8012253815       -2.4209833703
 H       -16.9467540963        0.6559410678       -3.2023117836
 H       -15.0740513008        0.3380167767       -5.6435145928
 H       -16.0581463977       -0.9208708328       -4.7333003822
 H       -14.2904245064       -1.2231790810       -5.1420000842
 H       -13.4833336052        3.9355505576        0.9135008790
 H       -14.7923604838        3.3900459797       -0.0175166138
 H       -14.8454086939        5.0018711875        0.5994197271
 H       -13.5580484575        5.8657915757       -2.8523642942
 H       -14.6895148403        6.2849337148       -1.6369473120
 H       -15.0782405289        4.9278953723       -2.6111512052
 H       -11.4206835019       10.3824308747        3.0912216452
 H        -9.8173143906       11.2008122951        2.8371530177
 H        -9.9668486499        9.8212706902        3.7739472862
 H       -10.6733029139       10.0561145216       -0.5593269038
 H       -10.3970310412       11.4370163741        0.4847523450
 H       -11.8314342964       10.7442223426        0.5681475712
 H        -3.3600611755        5.3883541808        4.3004615388
 H        -5.0680725935        4.8726158931        4.3357179072
 H        -4.7135658889        6.3631360269        5.1376565606
 H        -2.6935029423        6.9762519345        2.9076362945
 H        -3.4938335923        8.1315214432        3.7705424222
 H        -3.6235534093        8.2539756244        2.0898960461
 H        -7.1117644092        2.1373818318       -3.3472589503
 H        -5.9556146597        2.1316429577       -2.0888973672
 H        -6.4670938877        3.6403268833       -2.6736736220
 H        -8.3120372692        4.7724540685       -1.6300775966
 H        -9.7307890052        4.0347260716       -0.6907646948
 H        -9.3977449591        3.8141204039       -2.5854893136
 H        -7.6600997310       -1.5470200953        1.8526349377
 H        -8.5832607542       -2.8865283105        2.5444593651
 H        -8.3011943880       -1.4429844521        3.4193623927
 H       -11.9158456792       -1.3006671247        2.0682434264
 H       -10.9780684772       -1.5421648921        3.4464405442
 H       -10.9439031138       -2.8727396214        2.3791585651
 Na      -11.7680786419        0.1826196638       -1.0701441078
