117

 C       -11.0724843068        0.7476079591        3.5420427661
 C       -11.1736950721       -0.0602188153        2.2596154942
 O       -12.0117202623        0.3023700998        1.4225783149
 C       -10.2439479454       -1.3519442796        1.9766408894
 C        -9.7420511929       -1.5290778307        0.5326424481
 O       -10.4875655565       -1.8878469607       -0.3846470231
 C        -8.1755114895       -1.3598071703        0.1971015201
 C        -7.5982597127        0.0599748329        0.3788416171
 C        -8.3495987117        1.0886508883       -0.4947293212
 O        -9.4976197444        1.0773157666       -0.8033797600
 C        -7.3169123573        2.2608846017       -0.9241553604
 C        -6.6243546047        2.9570222041        0.3166982169
 O        -6.6974095735        2.5251505199        1.4381646274
 C        -5.7178874790        4.2004118942       -0.0553864123
 C        -5.7035394554        5.2860368585        0.9826952395
 C        -4.7549782530        6.5083573170        0.5782337354
 O        -4.3509404525        6.5760016826       -0.5427173769
 C        -4.3734142366        7.6083380995        1.6910421744
 C        -5.7036869564        8.3084030560        2.3642690654
 O        -6.5112036051        7.5828570997        2.9276284326
 C        -6.0864943406        9.7594458121        2.0232235897
 C        -7.6009756308       10.0840658083        2.4349870960
 C        -8.6621097225        9.3593369169        1.5568879608
 O        -8.3133567963        8.8667411259        0.5018239699
 C       -10.2118612728        9.3619896456        1.8844092468
 C       -10.7609557130        7.8827754870        1.6949221957
 O       -11.0628584351        7.2094229443        2.6693446744
 C       -10.8357874936        7.2059588755        0.2812165433
 C       -12.1188834982        6.3064953074        0.2291535237
 C       -12.2369917765        5.4533806277       -1.0693894799
 O       -11.5359815816        5.5412521338       -2.0531435941
 C       -13.4078877498        4.4529879364       -1.1396164544
 C       -12.9098244500        3.0363510624       -1.5266090241
 O       -13.0680318076        2.0977184294       -0.7893952976
 C       -12.3359598317        2.8444998453       -2.8776413140
 C       -13.2342676190        2.0505373264       -3.8467951230
 C       -13.3533157599        0.5186228652       -3.5103019429
 O       -12.4025356678       -0.1166793692       -3.1094835160
 C       -14.7300386891       -0.2509991155       -3.6741152701
 C       -15.1223776644       -0.9608319490       -2.2495767045
 O       -14.2218553786       -1.2785458067       -1.5368729059
 C       -16.5962905219       -0.8287179131       -1.7989381515
 C       -15.9061777588        0.3951090354       -4.4281470979
 C       -14.1906611562       -1.5565353037       -4.4811772811
 C       -14.1794363775        4.4161589191        0.2174473558
 C       -14.2854627505        5.0878171276       -2.2292076011
 C       -10.4553769943        9.8067943217        3.3804500145
 C       -10.9983349024       10.3350611789        0.8946866823
 C        -3.6441854691        6.7990504327        2.7971859181
 C        -3.3998495578        8.6236774632        1.0608815799
 C        -6.3286484566        1.6776177454       -1.8860439215
 C        -8.2004726623        3.4416938520       -1.5784562194
 C        -9.1534948297       -1.6317882952        2.9800304056
 C       -11.3383774094       -2.4289901061        2.1855819873
 H       -11.9927411116        1.2850702711        3.7154608511
 H       -10.1940851145        1.2979039318        3.5611027543
 H       -10.9622817469        0.1185497528        4.4207960292
 H        -8.0049688733       -1.8475991182       -0.7741437056
 H        -7.6205038566       -1.9703449880        0.9459119955
 H        -6.5699345407        0.0556041545        0.0415138379
 H        -7.6786830716        0.3831903599        1.4216373380
 H        -6.0346825558        4.5554842048       -1.0437795547
 H        -4.7317019472        3.6623403629       -0.3048256063
 H        -5.4245323210        4.9292479371        1.9621337399
 H        -6.6905947225        5.6886801829        0.9959908687
 H        -5.8534246219       10.0590121566        0.9858543076
 H        -5.4450135853       10.3745676108        2.6131640076
 H        -7.7067514093       11.1795177361        2.3833924968
 H        -7.7525698052        9.9322523557        3.4945211074
 H        -9.9140821722        6.5399381739        0.3775834674
 H       -10.8129090591        7.8728323840       -0.6456630804
 H       -12.9749639655        7.0151796478        0.1874969773
 H       -12.1440072990        5.7878108988        1.1597052340
 H       -11.4427523929        2.2741297925       -2.7818021940
 H       -12.0362128157        3.8590279189       -3.2509537255
 H       -12.9506492465        2.2714653763       -4.8782904715
 H       -14.3177256519        2.4107568883       -3.8945413072
 H       -17.2820980021       -1.4221733592       -2.4232068335
 H       -16.8569771567        0.2327453487       -1.9155770376
 H       -16.6582979281       -1.0564659169       -0.7534918368
 H       -15.6570601773        0.4056873759       -5.5137940205
 H       -16.1947014660        1.4342375943       -4.1641408736
 H       -16.8295050883       -0.2010573887       -4.3980209563
 H       -13.7698307375       -1.2739104707       -5.4652540241
 H       -15.0066799780       -2.2763345118       -4.5447728520
 H       -13.3831180402       -1.8442369847       -3.8172211928
 H       -13.5677567196        4.0244825159        1.0202755335
 H       -15.0332493070        3.7888636091        0.1455698960
 H       -14.5569693370        5.4070907547        0.4626383202
 H       -13.7509524995        5.1072021463       -3.1558246378
 H       -14.6898146673        6.1079144342       -2.0001590085
 H       -15.1263080158        4.4906775733       -2.3394047215
 H       -11.4207996432        9.4772431622        3.7547928596
 H       -10.2768696982       10.8326641217        3.4635208128
 H        -9.7042756120        9.3124467744        3.9679149921
 H       -11.0151570580        9.9095096769       -0.0935630628
 H       -10.6281444513       11.3574801311        0.8703612991
 H       -12.0329017586       10.3993241515        1.2287861091
 H        -2.9544737766        6.1120601681        2.4185753808
 H        -4.2780857746        6.0864810053        3.3072338219
 H        -3.1907678842        7.3886449253        3.5526887551
 H        -2.5693719035        8.0652676592        0.6193862120
 H        -2.9911445497        9.2698564162        1.8557901757
 H        -3.8554129777        9.2754136773        0.2825964957
 H        -6.8886168816        1.1257151531       -2.6235638660
 H        -5.6045430809        0.9820526824       -1.4296165910
 H        -5.7601834102        2.4885692746       -2.3875812681
 H        -7.5967437815        4.3653299140       -1.7927405375
 H        -9.0416162877        3.6029832340       -0.9194281523
 H        -8.5899044756        3.0985332150       -2.5182004514
 H        -8.2391568764       -1.1117357600        2.8753562775
 H        -8.9317071686       -2.6634721549        2.9865886168
 H        -9.5933011625       -1.3621324126        3.9529170880
 H       -12.0984859458       -2.2083159343        1.3952272470
 H       -11.6453060023       -2.4791677564        3.2903931097
 H       -11.0341588914       -3.4716853365        1.9521251025
 Na      -12.1310599637       -0.0104010407       -0.8489078257
