117

 C       -10.4816863767        1.1989372437        2.9881431522
 C       -10.8914488282        0.1368745355        1.9331883258
 O       -11.7952627567        0.3469736444        1.1876705301
 C       -10.2164969145       -1.2684091034        1.9524595254
 C        -9.8148199155       -1.6179501733        0.3626665402
 O       -10.7330941750       -2.0533448976       -0.3486425929
 C        -8.3943100739       -1.3951764367       -0.2092154635
 C        -7.8988726824        0.0698971865        0.0049235445
 C        -8.5577074267        1.2877654662       -0.6975619463
 O        -9.7658385366        1.2556752560       -0.9865226381
 C        -7.6740490782        2.4761243605       -1.0566379242
 C        -6.7663168244        2.9977086773        0.1515895585
 O        -6.8083688018        2.4509620994        1.2346356617
 C        -5.8960782128        4.2499791682       -0.0062023920
 C        -5.6982311902        4.9310182191        1.3145172952
 C        -4.6850617351        6.1113131200        1.1125472164
 O        -4.0228412109        6.1526004758        0.0877232162
 C        -4.5091611385        7.2891995981        2.2164328098
 C        -5.9441690446        7.8066029878        2.6008095054
 O        -6.8338070416        7.0952506807        3.0102318847
 C        -6.2106253128        9.3158494000        2.3344847569
 C        -7.7062677936        9.7072668900        2.5361133555
 C        -8.6140793142        9.3409764504        1.3876188127
 O        -8.2462398274        9.1282482296        0.2576644172
 C       -10.2352505083        9.3529615323        1.7283838936
 C       -10.6167083163        7.8378141805        1.6431099645
 O       -10.5349264886        7.0833233131        2.5673572011
 C       -11.0693281860        7.4042141120        0.2803037219
 C       -11.9944865165        6.1296134738        0.5001323980
 C       -12.1981521763        5.3703389384       -0.7784414179
 O       -11.4368593559        5.4881677068       -1.7188652385
 C       -13.4778310359        4.3435433032       -0.9570277959
 C       -12.8338391889        2.9658326185       -1.4776453180
 O       -12.8754364118        2.0274008031       -0.6622908165
 C       -12.1524566547        2.9082168939       -2.8852348440
 C       -13.0075376273        2.2112860330       -3.9213441915
 C       -13.2749575386        0.7257308102       -3.7711207029
 O       -12.3345162407       -0.0749099580       -3.7639955099
 C       -14.6958531338        0.1009716533       -3.5841332153
 C       -14.8417513308       -0.6411130534       -2.2159756264
 O       -14.0450237918       -0.5942473100       -1.2576975920
 C       -16.1553284330       -1.4370947817       -2.0365931272
 C       -15.8920345924        1.0833624582       -3.8947158177
 C       -14.6270286650       -1.1010259730       -4.6304481662
 C       -14.3053603831        4.0873765459        0.3356792460
 C       -14.3743180285        5.0129367023       -2.0779393024
 C       -10.5498156261        9.8820190653        3.0758740914
 C       -10.9725536129       10.1515179021        0.6607797074
 C        -4.0152822664        6.6080722171        3.5337737204
 C        -3.3835453914        8.3235685678        1.7437241054
 C        -6.7528252758        1.9518902114       -2.2251769319
 C        -8.5336274746        3.6306317865       -1.5487848816
 C        -8.8854317156       -1.4021424004        2.8280927561
 C       -11.2965547999       -2.2701295725        2.3555821119
 H       -11.2788826677        1.9278478997        2.9610270093
 H        -9.4821794228        1.6445448179        2.8578128102
 H       -10.4722513113        0.7853473374        3.9434663083
 H        -8.3302619605       -1.8158971105       -1.2383758911
 H        -7.7339832550       -2.0614501945        0.3652141076
 H        -6.9244839412        0.1090885472       -0.5006142948
 H        -7.7060428234        0.2804354775        1.0780275654
 H        -6.4542624134        4.8875771073       -0.7427054674
 H        -4.9607454709        3.8666132196       -0.5059793911
 H        -5.1120529724        4.3335621724        2.0194151623
 H        -6.5842285515        5.2345169102        1.8161037465
 H        -5.9805246132        9.4965865807        1.2748154020
 H        -5.5363608288        9.8999263421        2.9337483630
 H        -7.8178703465       10.8054428240        2.5516445863
 H        -8.0194829365        9.3490882283        3.5195728385
 H       -10.1063971778        7.1225518887       -0.2535562169
 H       -11.8301861352        7.9845624141       -0.2355854984
 H       -12.9469103422        6.3908236763        0.9320508105
 H       -11.4808026449        5.4018484705        1.1393584624
 H       -11.1458929329        2.4370773846       -2.8052436078
 H       -11.9485276696        3.8920928689       -3.2938065777
 H       -12.4422952129        2.4054247436       -4.8835940475
 H       -13.9981020921        2.7195792762       -3.9898852390
 H       -15.8719671306       -2.3388335034       -1.5393837872
 H       -16.6296245025       -1.7015080101       -2.9778658946
 H       -16.8549783610       -0.8479558891       -1.3975514485
 H       -15.8935199922        1.3189779313       -4.9679810479
 H       -15.7238706056        2.0402847320       -3.3363857411
 H       -16.8724034879        0.7248753747       -3.6086345071
 H       -14.9054741947       -0.6865885013       -5.5924179162
 H       -15.5165120063       -1.6987030669       -4.3706908202
 H       -13.6454698969       -1.5816419824       -4.5470897793
 H       -13.7109201369        3.9827466979        1.2228117308
 H       -14.9592085181        3.2518380125        0.2411019473
 H       -14.9086167937        4.9898643331        0.5163243210
 H       -13.9478909434        5.0283998449       -3.0662771892
 H       -14.7223685850        5.9556797515       -1.8160003256
 H       -15.2827778700        4.3622056812       -2.2043541592
 H       -11.6139997806        9.9517686454        3.1987832395
 H       -10.3192653003       10.9378968061        3.0888998724
 H       -10.1203953057        9.3041742754        3.8323438728
 H       -10.5863119548        9.9387168721       -0.3085102425
 H       -10.7905118881       11.1871437106        0.7804004965
 H       -11.9953012654        9.8448168852        0.6253572424
 H        -3.0602677753        6.0567804339        3.4175943726
 H        -4.7319888939        5.9376449081        3.9137548759
 H        -3.7461670046        7.2372734866        4.3291669417
 H        -2.4669487620        7.7977269061        1.5374500389
 H        -3.2368487565        9.0706974802        2.5539791168
 H        -3.5095063244        8.8035918211        0.7911077604
 H        -7.2882094941        1.2257680912       -2.9198634545
 H        -5.8578002491        1.4675191836       -1.8469335377
 H        -6.4269289022        2.7329534379       -2.8837896485
 H        -7.8610773456        4.2776540589       -1.9968707543
 H        -9.0518985315        4.1954052699       -0.7708008563
 H        -9.2319902216        3.1653392534       -2.2515424165
 H        -8.0652900024       -0.8468053264        2.4152216595
 H        -8.5047405892       -2.4512060357        2.8001145133
 H        -8.9394527003       -1.1004432300        3.8175335175
 H       -12.1008220387       -2.3681771422        1.5607476332
 H       -11.7116885868       -1.9691854884        3.3469430698
 H       -10.7168394925       -3.2708305392        2.4130455280
 Na      -11.8844383530        0.1503935154       -1.2939500817
