117

 C       -10.6802645525        1.0343917878        3.0797392685
 C       -10.9916009342        0.1327014710        1.9647556919
 O       -11.8842455756        0.3684645883        1.1473234934
 C       -10.3125691536       -1.3525750759        1.9822313878
 C        -9.8960540297       -1.5840373128        0.4427425036
 O       -10.6796844528       -1.9537353753       -0.3730760064
 C        -8.4142126938       -1.2994143483       -0.0604478735
 C        -7.7506911110        0.0347257661        0.1451364457
 C        -8.3873020913        1.2136288211       -0.5164062299
 O        -9.5781307536        1.3027561781       -0.6858309315
 C        -7.4946650869        2.4276306418       -1.0884246950
 C        -6.6901841932        2.9282345193        0.1584547248
 O        -6.7538198932        2.3618025413        1.2256472794
 C        -5.8363510539        4.2126206832       -0.0620693773
 C        -5.7614210859        5.1310497379        1.1398842427
 C        -4.7409342086        6.3061375259        0.9046230183
 O        -4.1533327552        6.4380618547       -0.1301034049
 C        -4.4924100335        7.3630393850        2.0948055685
 C        -5.9148608160        7.9455892916        2.4550288360
 O        -6.7333144203        7.2561117858        3.0383256672
 C        -6.2283175857        9.3641711351        2.0604303194
 C        -7.5931609309        9.7863885306        2.5079125544
 C        -8.6014799935        9.3620885896        1.4412395891
 O        -8.2578589398        9.0126379614        0.3375276537
 C       -10.1315002106        9.4001951095        1.8122141070
 C       -10.6363070459        7.9029089794        1.7010304189
 O       -10.5485451722        7.2048992933        2.6981173558
 C       -10.8696968162        7.1955670590        0.2995052958
 C       -12.0505326852        6.2228748977        0.3967887999
 C       -12.2598046632        5.4152788782       -0.9648775537
 O       -11.4830675592        5.5679560261       -1.8826238817
 C       -13.4600735427        4.4263513477       -1.0603730691
 C       -12.8833371827        2.9168230383       -1.4868117522
 O       -13.1335345127        2.0366388876       -0.7314749935
 C       -12.1947198503        2.7709461649       -2.8490743423
 C       -13.1616390806        2.0868813018       -3.8323981118
 C       -13.3034615892        0.6032944252       -3.6004977658
 O       -12.2639298759        0.0005381130       -3.3962128120
 C       -14.6893749019       -0.1623493094       -3.6939681653
 C       -15.0265814862       -0.7035628372       -2.2455777558
 O       -14.1630050839       -0.8372976928       -1.3939028681
 C       -16.4317358662       -1.1941412691       -1.8919773259
 C       -15.7709982624        0.8537666163       -4.1013319856
 C       -14.7108169653       -1.3770495129       -4.7377608452
 C       -14.2200619294        4.2981341932        0.3138982309
 C       -14.4123934402        4.8783066026       -2.1890550440
 C       -10.4083913076        9.8588326454        3.2799058564
 C       -10.7907095811       10.3690789406        0.7788226914
 C        -3.8962735373        6.8575773413        3.4028231392
 C        -3.6799004891        8.4700715026        1.4276708509
 C        -6.4481446687        2.0095366219       -2.1402101372
 C        -8.4667625364        3.5471144292       -1.6729287919
 C        -9.1276205227       -1.4020084524        2.9612315459
 C       -11.3350661746       -2.5114224678        2.3281627377
 H       -11.6885623186        1.3473803375        3.5389099511
 H       -10.0440650057        1.8225665683        2.7587648202
 H       -10.0982667789        0.5743064923        3.8946684665
 H        -8.4700971621       -1.5562932869       -1.0963331677
 H        -7.8219546978       -2.1095332892        0.3620075867
 H        -6.6939140664       -0.0057084402       -0.1116418914
 H        -7.8919244965        0.3220422564        1.1808800524
 H        -6.1609463742        4.6380374223       -0.9919655695
 H        -4.8571414371        3.7982544796       -0.2505205911
 H        -5.4984315848        4.5628223209        2.0306753123
 H        -6.6958219647        5.7206494341        1.3553483904
 H        -6.0902875483        9.4382533074        1.0053884103
 H        -5.4749256559       10.0021031375        2.5510353419
 H        -7.6510296446       10.8562666018        2.7394727777
 H        -7.7531154412        9.3006419802        3.4905690805
 H        -9.9950165705        6.6365677283        0.0952364853
 H       -11.2419127103        7.8730868386       -0.4404431346
 H       -13.0169208897        6.8004382058        0.4397456380
 H       -11.8825116986        5.6811840080        1.3478653141
 H       -11.2020280455        2.3365486832       -2.6666757759
 H       -12.0353588156        3.8115006456       -3.1983345545
 H       -12.8957362436        2.2051311529       -4.8833567293
 H       -14.0798409419        2.6329275497       -3.7638708183
 H       -16.4204528452       -2.3364771931       -1.7639188758
 H       -17.1633643097       -0.9585329096       -2.6228330839
 H       -16.6837502028       -0.6857000597       -0.9948167661
 H       -15.5639473122        1.4432320789       -4.9635612985
 H       -16.0439636384        1.4648174500       -3.2979718148
 H       -16.6806423706        0.3007990225       -4.3791262727
 H       -14.4889419737       -0.9935880645       -5.7582522419
 H       -15.7121056318       -1.7571551168       -4.7498527605
 H       -13.8912984702       -2.0400690829       -4.3768703257
 H       -13.5400902287        3.8769635139        1.0833196944
 H       -15.0860086623        3.5823087345        0.2187129674
 H       -14.5455294285        5.2433786770        0.6992072271
 H       -13.8122925631        5.1306156403       -3.0825142459
 H       -14.9425461643        5.8159849150       -1.8217200031
 H       -15.2002983677        4.2256044402       -2.5045387402
 H       -11.4373346788       10.2358827130        3.2858567224
 H        -9.8166608633       10.7466440626        3.5609934105
 H       -10.2641103320        8.9704241167        3.9943762682
 H       -10.4705835987       10.3382891097       -0.2764862365
 H       -10.5704920854       11.3781853153        1.1745051354
 H       -11.8638546766       10.1518196608        0.7567800980
 H        -2.9661849669        6.3329663581        3.3821811013
 H        -4.5196091003        6.1264251098        4.0439132081
 H        -3.6820357031        7.7599236426        4.0194333832
 H        -2.6980725223        8.1749516239        1.0041469984
 H        -3.6229120627        9.3054709131        2.0727370604
 H        -4.1219643893        8.7468166484        0.4618532668
 H        -6.8449276212        1.9575964863       -3.1113465470
 H        -5.9505767132        1.0611665128       -1.9066378405
 H        -5.6434384844        2.7824352968       -2.1797656969
 H        -7.9551744816        4.3550743872       -2.2196739346
 H        -8.9055696752        3.9265519949       -0.8010784315
 H        -9.2671110238        3.0946867441       -2.2191516120
 H        -8.5132967859       -0.4770506487        3.0552709619
 H        -8.4259278083       -2.1286513242        2.6301891422
 H        -9.4824395280       -1.6861149122        4.0047678765
 H       -11.9645206417       -2.4949592748        1.4581329242
 H       -11.8235487189       -2.3660077959        3.2583467242
 H       -10.8934385813       -3.4535273927        2.2944652761
 Na      -11.6723930458       -0.1333341984       -1.0829298670
