117

 C       -11.1692219560        0.3580704638        3.8521890239
 C       -11.1772468697       -0.2327318555        2.4834766743
 O       -11.7876073721        0.3593841304        1.5999565244
 C       -10.3496277511       -1.5493720561        2.1405899283
 C        -9.7333873980       -1.2781851512        0.7044244514
 O       -10.5616360375       -1.3357529955       -0.2296535762
 C        -8.2354020814       -1.2624880740        0.4764777815
 C        -7.6018154731        0.0857040291        0.7342710024
 C        -8.2355195039        1.0816645039       -0.3097823065
 O        -9.3164985068        0.9099670553       -0.7573362088
 C        -7.3763145677        2.3002194707       -0.8407588339
 C        -6.6183096359        3.0920039673        0.3259067958
 O        -6.8410728699        2.8416190910        1.4827362239
 C        -5.4942059142        4.1643716277       -0.0035996493
 C        -5.7927201950        5.4396381414        0.8193001031
 C        -4.9060477600        6.6265454435        0.3292210812
 O        -4.6537916860        6.7120809128       -0.8312371402
 C        -4.4298284332        7.7537871246        1.3823059441
 C        -5.7042404402        8.2694906258        2.0999640672
 O        -6.3839509693        7.6345622464        2.9098521932
 C        -6.2204434399        9.6442712069        1.7054199291
 C        -7.5708983503        9.9303135118        2.2808165845
 C        -8.6321104949        9.1052969541        1.4904826813
 O        -8.3796110787        8.5913591780        0.4013378745
 C       -10.0984588683        9.2524751420        1.9271720849
 C       -10.8343422453        7.8943137573        1.6950100110
 O       -11.4861146480        7.3569341368        2.5721108558
 C       -10.7964579967        7.2693666307        0.2961516135
 C       -12.0482894168        6.3180530043        0.1931489156
 C       -12.1720435817        5.4868204988       -1.0753208567
 O       -11.2695724792        5.4714234729       -1.8645135161
 C       -13.4680782636        4.5900727835       -1.2318234270
 C       -12.9586119717        3.1676341093       -1.6211203368
 O       -12.8865647420        2.2844599065       -0.7880059444
 C       -12.5235984186        2.9164119589       -3.1124879327
 C       -13.5896376305        1.9558170330       -3.7256703437
 C       -13.3033120251        0.4929878417       -3.4358875741
 O       -12.2549255321        0.0398872455       -3.0908798079
 C       -14.5415806393       -0.4571530931       -3.6628244019
 C       -15.0026868717       -0.7586750744       -2.1705356552
 O       -14.2846619526       -1.1812823910       -1.3264363317
 C       -16.4683758421       -0.6524822479       -1.8932117109
 C       -15.5750727347        0.1324094169       -4.6267824479
 C       -14.0053708519       -1.9375805393       -4.1986070959
 C       -14.3461584670        4.4687937015        0.0580735672
 C       -14.4017219697        5.1782522306       -2.3586588868
 C       -10.1212935173        9.6295224007        3.4616675579
 C       -10.7558719360       10.3150707831        0.9744363333
 C        -3.5989338284        7.0380014535        2.5267504058
 C        -3.6063937547        8.8573495773        0.6491607997
 C        -6.2032089890        1.7537674743       -1.7902463661
 C        -8.3016699288        3.1492540325       -1.7218637018
 C        -9.2733667359       -1.8664982605        3.1774888633
 C       -11.3294825959       -2.7677577182        2.0905195951
 H       -11.5693799966        1.3592889409        3.8249471996
 H       -10.1642317448        0.3483676593        4.3156796377
 H       -11.7995585892       -0.2349262714        4.6042343633
 H        -8.0784442571       -1.6209957486       -0.5519474599
 H        -7.7836420488       -1.9817960645        1.1574436455
 H        -6.4984440675        0.0349523241        0.7095866859
 H        -7.9292467145        0.4963459393        1.7262261559
 H        -5.4451793034        4.3224440716       -1.0516457632
 H        -4.5321035765        3.7677173947        0.2873002044
 H        -5.6565873649        5.2951298065        1.9296679486
 H        -6.7831566121        5.7951763478        0.5805954987
 H        -6.3926078673        9.6036112016        0.5487153684
 H        -5.4490380081       10.4145258583        1.8949219003
 H        -7.8353642213       11.0050332161        2.2793199437
 H        -7.5399592027        9.7338090672        3.3456338307
 H        -9.9091682191        6.6463967031        0.1571698796
 H       -10.6400561820        8.0663363744       -0.4398807235
 H       -12.8967276100        6.9430448917        0.4548221187
 H       -11.9152924081        5.5922412773        0.9864748727
 H       -11.5123613259        2.5213321030       -3.1424752049
 H       -12.5809787829        3.8826469150       -3.6547148592
 H       -13.5255512539        2.1018224924       -4.7840729204
 H       -14.6406534236        2.2530900054       -3.5736531319
 H       -17.0118162256       -0.4116455943       -2.7716012328
 H       -16.6775400625        0.1208501730       -1.0869835024
 H       -16.8228013802       -1.6200806452       -1.5694593242
 H       -15.0876045509        0.7842722438       -5.3364406415
 H       -16.4058926696        0.7690970707       -4.3067414242
 H       -16.0196454573       -0.6507153382       -5.1474816893
 H       -13.6725490738       -1.8001037730       -5.2329471635
 H       -14.8935418598       -2.6022874043       -4.0760544250
 H       -13.2241866306       -2.2114138016       -3.5187022073
 H       -13.7842267805        4.0622589248        0.9132096785
 H       -15.1977691371        3.8553363007       -0.1159268200
 H       -14.7508037092        5.5028586217        0.3218849719
 H       -13.9464447374        5.3893028920       -3.3302167325
 H       -14.7629140172        6.1782764536       -2.0393543156
 H       -15.2813968620        4.5055923769       -2.4391569868
 H       -11.2130510781        9.8109371888        3.7126884938
 H        -9.4181680664       10.4559527304        3.5927547799
 H        -9.8359751215        8.8271894473        4.1105802591
 H       -10.1781872157       10.2808204656        0.0475712939
 H       -10.7433446146       11.3299676087        1.3858038873
 H       -11.8443998402       10.2214907693        0.8451428772
 H        -2.8819393692        6.1989734009        2.2667071335
 H        -4.3017318315        6.4764007180        3.1258891516
 H        -3.1360732278        7.7328640757        3.2882519162
 H        -2.6667563771        8.4468613036        0.5335918711
 H        -3.4243830437        9.7475304153        1.3011412125
 H        -4.1205753835        9.2277433385       -0.2252189755
 H        -6.6723763013        0.9877347814       -2.4296751262
 H        -5.3068470461        1.3570664644       -1.3351834280
 H        -5.9299483070        2.5885996749       -2.3910693426
 H        -7.7181658857        3.8403298672       -2.3960778828
 H        -8.9117525644        3.7527110799       -1.0123922263
 H        -8.9060539637        2.5857519865       -2.4108504348
 H        -8.6973693748       -0.9971397966        3.4806030437
 H        -8.6342118200       -2.7166066925        2.7966154377
 H        -9.7761149586       -2.2589058038        4.0827248975
 H       -11.9513416183       -2.7253685115        1.2624167054
 H       -11.9402389384       -2.7566318921        3.0020906911
 H       -10.8167497370       -3.6731452244        2.1120645482
 Na      -12.3034310031       -0.1541536692       -0.7300364903
