117

 C       -11.4216395296       -0.2618737588        4.1233190309
 C       -11.2299938605       -0.5473560135        2.6782958360
 O       -11.6498195245        0.2251292845        1.8379730731
 C       -10.4566701377       -1.8782387095        2.2178749760
 C        -9.6582999275       -1.5185878788        0.9228653666
 O       -10.3283028772       -1.5466396548       -0.1321045186
 C        -8.2623778783       -0.8760701243        0.9449144438
 C        -8.3221097041        0.6598282193        1.2571627610
 C        -8.5617699030        1.4612403593       -0.0573858761
 O        -9.6079265871        1.3781593163       -0.5861933745
 C        -7.3947120086        2.2334303003       -0.7723081623
 C        -6.8699179005        3.2957796896        0.2551452300
 O        -7.4023454823        3.4153357268        1.3331241624
 C        -5.8036888577        4.2817965063       -0.1227739578
 C        -5.9981825614        5.6496492954        0.5580754500
 C        -5.1190188571        6.7112025991       -0.1534069577
 O        -4.8883532230        6.6415396542       -1.3271195713
 C        -4.4237974784        7.8462384222        0.6621737399
 C        -5.4388142250        8.5447436329        1.5413183384
 O        -5.4219029961        8.3147154640        2.7591311145
 C        -6.3084595504        9.6102763062        0.9050094750
 C        -7.6124816279        9.8758748665        1.7415723197
 C        -8.6836103312        8.8543290505        1.5039682294
 O        -8.4491109141        7.8543488515        0.8611259455
 C       -10.1295592673        9.2126255638        1.9778679844
 C       -11.1696517178        8.0543115802        1.8116245041
 O       -11.8387317867        7.7116917317        2.7827728416
 C       -11.2793924358        7.2677113855        0.4051897753
 C       -12.5324789908        6.4192102302        0.2317335753
 C       -12.2816835005        5.4015896309       -0.9405640717
 O       -11.2201315091        5.2542874574       -1.4834291382
 C       -13.6185196517        4.6138289007       -1.4871168969
 C       -13.0207750339        3.1369246711       -1.8069180231
 O       -12.9440669776        2.4122884486       -0.8152020039
 C       -12.5700740890        2.7811698387       -3.2544057307
 C       -13.2934157489        1.5840271102       -3.8068145582
 C       -12.9470756365        0.1830473896       -3.2126645047
 O       -11.7962077929        0.0823778614       -2.8434680871
 C       -14.0080424546       -0.8981437701       -3.2445023363
 C       -14.9521809485       -0.4254718617       -1.9054129981
 O       -14.4154286662        0.0922572689       -0.9572133923
 C       -16.3810298976       -0.8847414617       -1.9360952627
 C       -14.6623124148       -0.8998710310       -4.6267697911
 C       -13.4066136644       -2.3326107779       -2.9732724856
 C       -14.7396121175        4.3308648781       -0.3693081242
 C       -14.2643099008        5.3818881233       -2.6527417847
 C       -10.0134251310        9.6028776451        3.5156698782
 C       -10.5180787214       10.4928234873        1.1901194434
 C        -3.3742569128        7.0593173805        1.5695557399
 C        -3.6757353849        8.7890964574       -0.3130652327
 C        -6.3290031117        1.2647603960       -1.3251384468
 C        -8.0105160376        3.0591114076       -1.9011419228
 C        -9.5608528078       -2.3654255188        3.3408198815
 C       -11.5414841642       -2.8784099028        1.9016138670
 H       -12.1608354515        0.4912578152        4.3596103601
 H       -10.5653102836        0.3255802942        4.3609702275
 H       -11.4634643001       -1.0993862908        4.7876994114
 H        -7.7655904670       -0.9780359219       -0.0502201743
 H        -7.6255126278       -1.3164667208        1.7327301922
 H        -7.4014498981        0.9657071759        1.7315974660
 H        -9.0202370208        0.8865605708        2.0561119198
 H        -5.8422953977        4.3503855671       -1.2467501537
 H        -4.8201260388        3.8583992748        0.2228546505
 H        -5.7908284084        5.6900337167        1.6496269555
 H        -6.9837221696        6.0505440923        0.4839715083
 H        -6.5847291514        9.4970595723       -0.1273441904
 H        -5.7219056653       10.4895696900        1.0292304613
 H        -7.9078674511       10.9091804530        1.5027996107
 H        -7.3618926716        9.8302139269        2.7994315520
 H       -10.3856767170        6.6778150203        0.1185206139
 H       -11.1071628778        8.0955912631       -0.2968981933
 H       -13.4577951387        6.9958602270        0.1716352227
 H       -12.7169197110        5.9452552259        1.2256247933
 H       -11.4887503305        2.6150107951       -3.2822075082
 H       -12.7662308779        3.6714653232       -3.8472357905
 H       -12.8476774550        1.5097117122       -4.8532829685
 H       -14.3797100373        1.7904797449       -3.8314896233
 H       -17.0272610521       -0.4314174188       -1.1679753519
 H       -16.3170897073       -1.9665301690       -1.6896778584
 H       -16.7654867885       -0.7669714158       -2.9097707940
 H       -14.0463404395       -0.4775140259       -5.4315936285
 H       -15.6615452182       -0.3806732084       -4.5690591585
 H       -14.8328751777       -1.8798375103       -5.0006211389
 H       -12.8533021045       -2.6742475469       -3.8650725454
 H       -14.2537853480       -3.0396988819       -2.8549245447
 H       -12.7816931449       -2.1454815940       -2.1333075450
 H       -14.2358814169        3.8666309531        0.4640840646
 H       -15.4208755878        3.6560747442       -0.7948711682
 H       -15.3181529976        5.2272536672       -0.0243588125
 H       -13.5528917917        5.6443969458       -3.4105651013
 H       -14.7375193711        6.2730691474       -2.2632951134
 H       -15.0664686101        4.8059665034       -3.1602938014
 H       -11.0000123647        9.8945914696        3.8688363821
 H        -9.5021585426       10.5313149573        3.5749729880
 H        -9.5542624559        8.8753842673        4.0868775441
 H       -10.1882019483       10.3670680896        0.1564434001
 H        -9.9277621753       11.3391911044        1.5439270407
 H       -11.5948369282       10.7015278486        1.1119249102
 H        -3.0323380711        6.1284271191        1.0858106428
 H        -3.8228247688        6.8253625188        2.4935576032
 H        -2.4419673813        7.5428672343        1.7912321662
 H        -2.8690620683        8.2323488186       -0.6511184815
 H        -3.3891071787        9.6580145905        0.3184839129
 H        -4.2398195315        8.9840835330       -1.2105045867
 H        -6.6947708421        0.2134724673       -1.4039675524
 H        -5.4139029094        1.2988838929       -0.7624123883
 H        -6.1689131346        1.5695860274       -2.3272448686
 H        -7.3745749659        3.8950816362       -2.3432016324
 H        -8.8680501656        3.6053036326       -1.4367857084
 H        -8.4802571956        2.4079806130       -2.6495302369
 H        -8.7122543601       -1.7371302830        3.4198347051
 H        -9.1846467668       -3.3742913809        3.0494994404
 H       -10.0819211048       -2.4290855102        4.2708469146
 H       -12.1294722620       -2.5998650832        1.0153135770
 H       -12.3549550697       -2.8823408139        2.7363246544
 H       -11.1072616732       -3.8861765642        1.7579649660
 Na      -11.7585244440        0.3349601994       -0.5531067731
