117

 C       -11.5168717191       -0.3308280863        4.1773586089
 C       -11.3069431516       -0.5780496737        2.7083864800
 O       -11.8838896133        0.1520706415        1.8920868653
 C       -10.6113481543       -1.9086188086        2.2117546477
 C        -9.8095256792       -1.4325515727        0.8696613056
 O       -10.3029164606       -1.6535265822       -0.2238251641
 C        -8.4197477525       -0.7987791958        0.9533295696
 C        -8.4521845470        0.7499077256        1.1745301834
 C        -8.8465621331        1.5104717360       -0.1313582588
 O        -9.9488935438        1.4581548341       -0.5936788316
 C        -7.6876725819        2.3111653432       -0.7654464676
 C        -7.2004312831        3.4452119156        0.2971520458
 O        -7.5907125089        3.4112659276        1.4313270476
 C        -6.0423967795        4.3395073874       -0.2198022369
 C        -5.8646898468        5.7089301556        0.4117241017
 C        -5.0102127570        6.7550461541       -0.3468983955
 O        -4.9754442578        6.7682016281       -1.5410675224
 C        -4.2792714978        7.8725381170        0.4438778186
 C        -5.3149574901        8.6016954626        1.3045929871
 O        -5.1032375516        8.7140836958        2.5085346589
 C        -6.4326839758        9.3766216131        0.6608978101
 C        -7.5885580160        9.7419092286        1.6301047310
 C        -8.6843537636        8.7341775552        1.4372939996
 O        -8.4026786758        7.5991728390        1.0588648854
 C       -10.0923520147        9.1165677365        1.9282954950
 C       -11.1770997571        7.9303453081        1.7314910577
 O       -11.9043292248        7.6905868668        2.6820051484
 C       -11.3571221037        7.3401093264        0.3561472445
 C       -12.6754799161        6.5838891311        0.1450904977
 C       -12.4134154465        5.4778740827       -0.9033859572
 O       -11.3123779561        5.3017167202       -1.3532785176
 C       -13.5973772274        4.6522106362       -1.3863381911
 C       -12.9419914797        3.2358529294       -1.7044598771
 O       -12.8022857474        2.5042042313       -0.7186394631
 C       -12.3033779982        2.8645113602       -3.0864354209
 C       -13.0578305041        1.6431438444       -3.6696934658
 C       -12.5812436592        0.2061397261       -3.1288428627
 O       -11.4509322028       -0.0714474283       -2.8700565961
 C       -13.7463149956       -0.9920003449       -2.9408427443
 C       -14.6964794979       -0.5156498389       -1.7480343690
 O       -14.2265843410       -0.0308549840       -0.7498488539
 C       -16.1827684126       -0.9454939383       -1.8279229350
 C       -14.4300939623       -1.1827546652       -4.3003497996
 C       -12.9320484714       -2.2267957545       -2.4577105299
 C       -14.7572239797        4.6129183491       -0.4165704385
 C       -14.0586488328        5.3728216427       -2.7036142748
 C       -10.1833302450        9.5079008135        3.3664576321
 C       -10.7335346663       10.3289716531        1.1235098766
 C        -3.1713938966        7.2368088271        1.2663377696
 C        -3.6375812061        8.8562112738       -0.6055783172
 C        -6.4206594152        1.4307861815       -0.7627447497
 C        -8.0856946594        2.8419207882       -2.1314032565
 C        -9.6147985475       -2.4427400936        3.2786395963
 C       -11.6993116021       -2.9347681010        1.7569299158
 H       -11.7987896262        0.6572758574        4.4738098113
 H       -10.6636667927       -0.5175542384        4.8986759405
 H       -12.3135997529       -1.0553014658        4.4407731976
 H        -7.7794695611       -1.0231642864        0.0886216197
 H        -7.8544837400       -1.1697665412        1.8168652789
 H        -7.4882959305        1.0793378303        1.6232691692
 H        -9.1815641655        0.9257713760        1.9844695181
 H        -6.2382720998        4.4352346761       -1.2815374241
 H        -5.2426778436        3.6461942793       -0.1320336499
 H        -5.5305961382        5.6732451782        1.4335197725
 H        -6.8454266720        6.1796170949        0.5075460143
 H        -6.8717878970        8.8019367096       -0.1751648851
 H        -5.9888163125       10.3331272314        0.1567939876
 H        -7.9693427312       10.7316572148        1.3832139093
 H        -7.1121856795        9.7391101833        2.6339324091
 H       -10.3648417383        6.7954210414        0.2024616993
 H       -11.2976115204        8.1601637310       -0.3748952317
 H       -13.4742857067        7.2616647552       -0.0515254667
 H       -13.0549310027        6.1539768962        1.0602580690
 H       -11.2191542238        2.6719170561       -2.8782487119
 H       -12.3086331479        3.6565120569       -3.7946036857
 H       -12.6719634479        1.6303999031       -4.7007020389
 H       -14.1033096256        1.8094328290       -3.6658573503
 H       -16.5175428102       -1.2723508949       -0.8716769808
 H       -16.3186344979       -1.7932740519       -2.5612442267
 H       -16.7719743764       -0.0961355913       -2.1773987254
 H       -13.8046817139       -1.8708466070       -4.8435696944
 H       -14.4727657820       -0.2302267775       -4.8300239338
 H       -15.4006559123       -1.6249873996       -4.3251574478
 H       -12.1551631356       -2.3797698488       -3.2029051063
 H       -13.6403360847       -3.0840895726       -2.4678221161
 H       -12.4350293610       -1.9280339869       -1.5484491262
 H       -14.4757337794        4.0031930160        0.4238937026
 H       -15.7147926023        4.2949418048       -0.8511672303
 H       -14.8266768037        5.6599850094       -0.0675177077
 H       -13.2326698454        5.5205633396       -3.4056823290
 H       -14.6453493765        6.2273387434       -2.5494612404
 H       -14.7974055540        4.6491038174       -3.1832725079
 H       -11.2250882217        9.9004362950        3.6179007891
 H        -9.4368971963       10.3591564609        3.5694632038
 H        -9.9338624804        8.6780943598        3.9843915753
 H       -10.6585580038       10.2776468812        0.0374587132
 H       -10.3986664547       11.2820523984        1.5455172558
 H       -11.8107690747       10.2282596614        1.2168916161
 H        -2.2527089142        6.8509417342        0.6597319752
 H        -3.5262478940        6.4403750374        1.8710256931
 H        -2.8035218209        8.0460018488        1.9606011037
 H        -3.1575049531        8.3220728911       -1.3796008820
 H        -3.0529919803        9.4984938362        0.0881366690
 H        -4.3850854264        9.4585386625       -1.1198556980
 H        -6.6522122849        0.3529236489       -0.9783097642
 H        -6.0270082105        1.4891047203        0.2414249168
 H        -5.7013733559        1.7465844658       -1.4936608783
 H        -7.1909395261        2.8641266017       -2.7395196610
 H        -8.5363981332        3.8166150738       -2.2023176389
 H        -8.7907529057        2.1899859771       -2.5993939447
 H        -9.2695736115       -1.5426126011        3.7999608987
 H        -8.6941315108       -3.0142233844        2.9140023138
 H       -10.1522188446       -3.0540176225        3.9662235917
 H       -12.4153398372       -2.5935398920        1.1124692070
 H       -12.1639184017       -3.3676539482        2.6445858287
 H       -11.1991730062       -3.7333401828        1.3031989501
 Na      -11.9696361089        0.2653616835       -0.4023587749
