117

 C       -11.9430178761       -0.9588168114        4.5921074167
 C       -11.6094126524       -0.6832374927        3.1709852737
 O       -11.8784358183        0.3709184251        2.6735022353
 C       -10.8602614817       -1.8529862333        2.4171532168
 C        -9.9345236660       -1.2335050805        1.2422053518
 O       -10.3114349591       -1.2018770406        0.0664003720
 C        -8.6314089139       -0.5222636966        1.6487297647
 C        -8.8233835246        1.0809107060        1.6983611937
 C        -8.9359148120        1.7035279371        0.2370250853
 O       -10.0146648065        1.7286976617       -0.2571044733
 C        -7.6598204413        2.2849057508       -0.6256985220
 C        -7.3565806642        3.7117652683        0.0022348255
 O        -7.5879923829        3.8561990428        1.2024860868
 C        -6.8868047396        4.9977494930       -0.7752233839
 C        -5.8021177830        5.7474362881        0.0086133370
 C        -5.1558069723        6.8281088817       -0.8607277921
 O        -5.1805846401        6.8417686117       -2.0835959303
 C        -4.2868111844        7.9494736586       -0.1073906287
 C        -5.1441142538        8.9067400262        0.8397827766
 O        -4.9273814498        9.1526290656        1.9806779432
 C        -6.3493752411        9.5900773303        0.1795037126
 C        -7.5033438301        9.7725889843        1.1892838328
 C        -8.6294632103        8.6461588889        1.3857961123
 O        -8.4084672534        7.4863012245        1.1988221489
 C       -10.1254785442        9.1280849504        1.9260495590
 C       -11.1809787866        8.0897154822        1.6321137467
 O       -12.0257167253        7.7206474479        2.4112393879
 C       -11.2522274735        7.5005237959        0.1590255874
 C       -12.4732714511        6.5899389629       -0.0318373039
 C       -12.3976017114        5.6201572263       -1.3006502858
 O       -11.4918029595        5.5706668182       -2.1095427669
 C       -13.5971921127        4.5884178325       -1.5194307843
 C       -13.0480182620        3.1198559942       -1.5296679658
 O       -13.2551581401        2.4641162752       -0.4978828536
 C       -12.1567048099        2.6335340722       -2.6353682770
 C       -12.7714015058        1.3028327627       -3.3061145079
 C       -12.2227182099       -0.0431090033       -2.8030922567
 O       -11.1456430244       -0.1400510451       -2.2106178976
 C       -13.1781106260       -1.3194652789       -2.9205776457
 C       -14.2164526175       -1.1658913228       -1.6815605926
 O       -13.7578342853       -1.0964574164       -0.5243551836
 C       -15.6887298495       -1.3265440995       -1.8970745891
 C       -13.9411200280       -1.4158325134       -4.2273631565
 C       -12.5980339841       -2.6428214129       -2.5818280886
 C       -14.7672476025        4.8903043847       -0.5013883607
 C       -14.1019353454        5.0169226756       -2.9247514961
 C       -10.1912776814        9.3069454612        3.4416273538
 C       -10.6164105113       10.4525567705        1.3473199051
 C        -3.0290042751        7.2707736352        0.6282547190
 C        -3.7239595018        8.8263890018       -1.3119578280
 C        -6.4333066782        1.4069202477       -0.4972263661
 C        -8.0348052070        2.4167182643       -2.1228124351
 C        -9.9351126508       -2.7596834958        3.2516136763
 C       -11.9653195455       -2.7167089506        1.7282914207
 H       -13.0350862694       -1.1513461987        4.8684232449
 H       -11.4811402392       -0.2698865828        5.1947309127
 H       -11.4296754064       -1.8650658756        4.9357567232
 H        -7.8703482500       -0.7771108789        0.9235092511
 H        -8.2805286095       -0.7998819731        2.6254997429
 H        -7.9982008489        1.5994691402        2.1768678130
 H        -9.7939444626        1.2287301199        2.1689626712
 H        -7.7630906223        5.6241482227       -0.9237739006
 H        -6.5746199407        4.7171145628       -1.7750444856
 H        -4.9551759050        5.0381973437        0.2512254877
 H        -6.1561211203        6.2936529814        0.9224976066
 H        -6.6109416071        9.0018443379       -0.6609295263
 H        -6.1308873108       10.5561471916       -0.2396291549
 H        -8.0099044997       10.7174233764        1.0158071422
 H        -6.8759873421        9.9293212272        2.0713388291
 H       -10.3478858029        6.9407508476       -0.0455434382
 H       -11.4968853724        8.2721183050       -0.5244051716
 H       -13.4203601612        7.1410784750       -0.1850648234
 H       -12.4612835300        5.9425185019        0.9233175735
 H       -11.1962617719        2.3055043464       -2.1201183003
 H       -11.8885259277        3.3857155833       -3.3790916345
 H       -12.7261867441        1.4326964209       -4.4156013286
 H       -13.8402317177        1.3328452317       -3.2013381163
 H       -16.1685380924       -1.2651625332       -0.8565422903
 H       -15.8659810226       -2.2994087850       -2.3240500881
 H       -16.0951007430       -0.5789357988       -2.4949265006
 H       -13.2737217309       -1.6186535161       -5.0896702995
 H       -14.4878589441       -0.4401244480       -4.4353965886
 H       -14.5812601028       -2.2663569325       -4.0941201820
 H       -12.0884269706       -3.0746069593       -3.4550258508
 H       -13.4488041035       -3.2990127023       -2.2449968358
 H       -11.9988448334       -2.4792467337       -1.6859839609
 H       -14.3838373985        4.8816023260        0.5182620508
 H       -15.5518418411        4.1913113994       -0.5469160546
 H       -15.1935960324        5.9063439348       -0.7239623229
 H       -13.4459393036        4.8350130124       -3.7458594330
 H       -14.2167543190        6.0873626504       -2.9046039488
 H       -15.0588329324        4.4824586660       -3.0903288656
 H       -11.1480788274        9.6746808934        3.7703279150
 H        -9.4239422384        9.9841685090        3.6322960741
 H        -9.9727978201        8.4556189088        4.0699858590
 H       -10.6184474711       10.4104464702        0.2637659199
 H        -9.9803836290       11.3183623497        1.5972671385
 H       -11.5643218721       10.6685806231        1.8287120571
 H        -2.5072557706        6.6057924236        0.0351377699
 H        -3.4790532733        6.7951739836        1.5167728005
 H        -2.4516566831        8.0847064568        1.0132804601
 H        -2.9398266661        8.2765270343       -1.7436522275
 H        -3.1622166547        9.6542435038       -0.8329370264
 H        -4.5425259872        9.1764595897       -1.9465508606
 H        -6.6324226399        0.4897330383       -1.0901412431
 H        -6.1773236872        1.1596976682        0.5140186421
 H        -5.5889335663        1.9247746192       -0.8545796960
 H        -7.1993660249        2.3454803703       -2.9011041400
 H        -8.4441101471        3.4287696364       -2.2488051829
 H        -8.7673275116        1.7223946922       -2.5275553556
 H        -9.1956429777       -2.2151716394        3.7783206857
 H        -9.4524771104       -3.5516644886        2.6481762272
 H       -10.5304071408       -3.2595505325        4.0140287403
 H       -12.7211441030       -2.1334681995        1.0478972516
 H       -12.6337317709       -3.2458446918        2.4604874061
 H       -11.5005480179       -3.4972441103        1.0645385914
 Na      -12.1161959378        0.5698126490        0.2343429113
