117

 C       -12.0048389811       -0.6121111194        4.7766322401
 C       -11.6444326026       -0.7477995460        3.3358754616
 O       -12.1237260409        0.1113164250        2.5504528892
 C       -10.6387570133       -1.7591681557        2.6754521143
 C        -9.6872343575       -0.9084037700        1.8071625902
 O        -9.8577038935       -0.9469822766        0.6251519760
 C        -8.6104365120        0.0118982929        2.4001412248
 C        -8.7539346011        1.5220716563        2.0394511677
 C        -8.9383632075        1.9018949214        0.5422757928
 O       -10.0671810013        1.9852646014        0.0708615004
 C        -7.7079522615        2.1863892419       -0.3332885000
 C        -7.0796095483        3.6188811359        0.2497550560
 O        -7.2162944705        3.8798964517        1.4265119318
 C        -6.5026184091        4.5773174223       -0.7434607516
 C        -5.9577009279        5.7827707977       -0.0707741864
 C        -5.5221618822        6.8233179221       -1.1220404251
 O        -5.9122614073        6.8647270110       -2.2687958896
 C        -4.5189032998        7.8901538873       -0.5114586070
 C        -5.3551593962        8.7299331009        0.5918729566
 O        -5.3179765642        8.4538952775        1.7741849911
 C        -6.4122683672        9.6460594467       -0.0358835057
 C        -7.7450983936       10.0132975002        0.6810264889
 C        -8.6483628415        8.7865355184        0.8877388144
 O        -8.3157072821        7.7451054191        0.3824271624
 C       -10.0354799344        8.9900279990        1.6417492623
 C       -11.0573444473        7.8378842583        1.4635856777
 O       -11.9657180707        7.5973942772        2.2397001483
 C       -11.0655564453        7.0635713485        0.0954984092
 C       -12.3546192108        6.2637289982        0.0027828695
 C       -12.4583732323        5.5824824177       -1.3768620423
 O       -11.6396318148        5.7555441790       -2.2531760761
 C       -13.6652040977        4.6176163476       -1.5084977621
 C       -13.1332599383        3.2221121081       -1.3989702487
 O       -13.0429377439        2.7390931436       -0.2592381982
 C       -12.2591125274        2.6447006602       -2.5834075553
 C       -12.7729179876        1.4647258422       -3.4117805565
 C       -12.3849805619        0.1497904841       -2.7531204175
 O       -11.3387792265        0.1373967327       -2.0582973674
 C       -13.1978509862       -1.1524620166       -2.9638620613
 C       -14.1296259430       -1.3484414074       -1.6715048343
 O       -13.9218632310       -0.6807990639       -0.6698229601
 C       -15.1059162757       -2.4845976984       -1.6418582140
 C       -13.9047385074       -1.1378931772       -4.3622640364
 C       -12.2415520060       -2.2652625825       -2.9865319210
 C       -14.7869200162        4.7782398063       -0.4247924700
 C       -14.4097802556        4.8354314847       -2.9391517220
 C        -9.7478954003        9.0923638281        3.1609176082
 C       -10.6497134814       10.3225344818        1.1263074061
 C        -3.2870408003        7.2811126542        0.3234275900
 C        -3.9784807544        8.6732365018       -1.7458086810
 C        -6.6797090967        1.0476165233       -0.1965593394
 C        -8.2169112783        2.3179972833       -1.7432156092
 C        -9.8941410055       -2.6066344386        3.7812957280
 C       -11.5615657075       -2.7116782051        1.8415259857
 H       -12.2378217132       -1.6375161271        5.1851095298
 H       -12.8440349559       -0.0062522082        4.8377361840
 H       -11.2168741045       -0.2222259040        5.4888501365
 H        -7.7321058783       -0.4160087541        1.9496820613
 H        -8.5358585915       -0.0388539348        3.4739364296
 H        -7.9395095972        2.1507445276        2.4331879693
 H        -9.5939411507        1.9687993154        2.5818735111
 H        -7.2978406835        4.8761316860       -1.4355789385
 H        -5.7160098622        4.0876148608       -1.2963811571
 H        -5.1085532416        5.5964419230        0.5476794580
 H        -6.7837886642        6.2352920743        0.5344277886
 H        -6.6621105854        9.3662299216       -1.0779902949
 H        -5.9021976608       10.6447087986       -0.0745015345
 H        -8.2505526112       10.7626017351        0.0832353860
 H        -7.5989210154       10.5211878494        1.6260425873
 H       -10.2095478746        6.3273376722        0.1028151865
 H       -10.8344713232        7.7675165723       -0.7351907632
 H       -13.1493584505        7.0029608032        0.1944123343
 H       -12.3104842156        5.5067575634        0.7361497532
 H       -11.3309533719        2.2624145880       -2.1275716637
 H       -12.1318320624        3.4723845220       -3.3079214754
 H       -12.2622212981        1.4777669302       -4.3305953017
 H       -13.8245462852        1.6001648815       -3.6428979484
 H       -15.1249620920       -2.8904816439       -0.5723598885
 H       -14.8619860609       -3.2762010008       -2.3029119891
 H       -16.0738506808       -2.0956123157       -1.8897332642
 H       -13.1619626230       -1.1754749275       -5.1851041532
 H       -14.6202384050       -0.3177603561       -4.4186186181
 H       -14.5572821078       -2.0431460827       -4.4502804636
 H       -11.6851539596       -2.2195513768       -3.9474593489
 H       -12.8348775250       -3.2241743638       -2.9894270582
 H       -11.6336489202       -2.1322912207       -2.0788322450
 H       -14.4715553901        4.6761107319        0.5777314665
 H       -15.5304851349        3.9649191893       -0.6390036429
 H       -15.2803199282        5.7209411166       -0.5194005109
 H       -13.8097357703        5.5414139656       -3.4937275375
 H       -15.4041646190        5.1090275986       -2.8201296180
 H       -14.4248097424        3.9330653734       -3.5583948787
 H       -10.6565373846        9.4355208966        3.6327353383
 H        -9.0657633717        9.8799464868        3.5040200511
 H        -9.5149686440        8.1711565930        3.5359561771
 H       -10.7874137225       10.1033240079        0.0658176826
 H        -9.9802017057       11.1632255139        1.2274796281
 H       -11.6655396373       10.5292052750        1.4237689887
 H        -3.0885544933        6.2782013967       -0.1285794252
 H        -3.4822906224        7.1978532474        1.3306525894
 H        -2.4410376520        7.9334316492        0.1371149215
 H        -3.2845682133        8.0853278308       -2.3204051250
 H        -3.5160523609        9.6193655612       -1.3355134972
 H        -4.7095293422        8.8824676712       -2.5309937128
 H        -7.0576605721        0.1114595515       -0.5836519368
 H        -6.4503260064        0.9067079401        0.8473689866
 H        -5.7763152285        1.2399183396       -0.7766243900
 H        -7.4383252914        2.3649217410       -2.5135837365
 H        -8.8901813909        3.1333502899       -1.9144196086
 H        -8.8470980763        1.4646126709       -1.9173398665
 H        -9.3586215344       -2.0203933673        4.5259716379
 H        -9.1370917616       -3.2243144619        3.2861355896
 H       -10.5415793571       -3.2813892242        4.2411169701
 H       -12.2251126804       -2.2116210603        1.0993209941
 H       -12.2919035238       -3.3657838698        2.4453710988
 H       -10.8867140104       -3.4032702231        1.3534042109
 Na      -11.9632682820        0.5461089888        0.2810016071
