117

 C       -12.0879496231       -0.9467752864        4.8203217132
 C       -11.6487523947       -0.6993147481        3.4108802627
 O       -11.8788246922        0.3775856355        2.8473908832
 C       -10.7818827725       -1.7794749170        2.5551657222
 C        -9.8305272469       -1.0495243590        1.5725873905
 O       -10.0223898988       -1.0043889877        0.3661955511
 C        -8.5539603165       -0.2781729049        2.0870746467
 C        -8.7570366473        1.2900321889        1.8547762749
 C        -8.9673744640        1.6996422018        0.3724991077
 O       -10.0591105432        1.7101926867       -0.1187432527
 C        -7.7490967193        2.2910548939       -0.4651680010
 C        -7.2705569036        3.6991521742        0.1894708769
 O        -7.3583857399        3.8031206178        1.4103730979
 C        -6.7169011564        4.7671952550       -0.7701671820
 C        -5.9996824545        5.8969316580       -0.0889328305
 C        -5.4285119855        6.8446827529       -1.1056453128
 O        -5.6267698566        6.7791400799       -2.3029614976
 C        -4.4550788481        7.9355960717       -0.3296387559
 C        -5.3216579265        8.7973627822        0.6613158686
 O        -5.0737707847        8.8566324138        1.8357428528
 C        -6.5462750272        9.4530923684        0.0239481366
 C        -7.5088563058        9.8692035442        1.1092931066
 C        -8.5994324198        8.7780639613        1.1465800077
 O        -8.3032882909        7.6383669219        0.8755791653
 C       -10.0076505296        9.0983216544        1.8013005228
 C       -11.1060867090        7.9501716623        1.4654352083
 O       -11.9575129569        7.7347931703        2.2871716017
 C       -11.0323864823        7.1864225258        0.0640630414
 C       -12.3994340468        6.3820486311       -0.0859610744
 C       -12.4150003816        5.5396173476       -1.3674711744
 O       -11.5858464816        5.6875790761       -2.2389750141
 C       -13.6391238476        4.6100600875       -1.5821279185
 C       -12.9899899263        3.1313609343       -1.4779052897
 O       -13.2107436857        2.4093597227       -0.4803923167
 C       -12.1380502079        2.6051598791       -2.6613935875
 C       -12.9363367544        1.3603627756       -3.1852811487
 C       -12.3462495151        0.0590530247       -2.7069215632
 O       -11.1959701879        0.0316878941       -2.1957807163
 C       -13.2071131138       -1.2053528692       -2.9496255621
 C       -14.2437212021       -1.1405909087       -1.6740184051
 O       -13.8634352910       -0.7702099968       -0.5765001578
 C       -15.5519443886       -1.9414511948       -1.8710440929
 C       -14.0336808336       -1.2471058978       -4.2558888426
 C       -12.1463252990       -2.3097345432       -2.8448527054
 C       -14.8096525778        4.7764713975       -0.5335211931
 C       -14.2206845221        4.7653461890       -3.0536082247
 C        -9.7549746156        9.2132000035        3.2413084812
 C       -10.6525856480       10.4530435291        1.2828989249
 C        -3.2397825888        7.1713097981        0.4749002830
 C        -3.7808136081        8.9156098674       -1.3008361536
 C        -6.4972238031        1.4458829525       -0.3543480266
 C        -8.2402492728        2.3459475719       -1.9053548805
 C        -9.8507359739       -2.7193245829        3.4445283173
 C       -11.8097454580       -2.6428345178        1.7249364256
 H       -12.7733422332       -1.8390264953        4.8904846034
 H       -12.4348406698       -0.1268445710        5.2946734728
 H       -11.2177064942       -1.2541305530        5.4044096036
 H        -7.6105456835       -0.5665792666        1.5544304519
 H        -8.4498608624       -0.3382134875        3.1911572001
 H        -7.9223262535        1.8578220716        2.3298550914
 H        -9.6716462051        1.6625670808        2.3192582189
 H        -7.5097718614        5.1405624060       -1.4706012158
 H        -5.9764400534        4.2472519293       -1.4206817147
 H        -5.2327612845        5.5562867364        0.5080875772
 H        -6.6583194101        6.5851722073        0.4811755170
 H        -7.0581207423        8.8280380196       -0.6698451173
 H        -6.1975106805       10.3235239365       -0.6238950782
 H        -7.8832614676       10.8885066644        1.0166378435
 H        -7.0138347648        9.8461219952        2.1366022831
 H       -10.1379209710        6.5151761832        0.1940818934
 H       -10.9202797332        7.9041120960       -0.7288810472
 H       -13.2136405503        7.0901792786       -0.1413538660
 H       -12.3917636561        5.7555922250        0.8064061360
 H       -11.2462503349        2.1103590815       -2.2571515088
 H       -11.9363305645        3.3580361022       -3.3684675352
 H       -12.9786610274        1.3549304193       -4.3052301224
 H       -14.0101071744        1.4967352733       -2.9177234157
 H       -16.1593228278       -2.1254016383       -0.8925783699
 H       -15.1090608327       -2.8763949092       -2.1975268847
 H       -16.1882535049       -1.5941085363       -2.6278711219
 H       -13.3546481709       -1.1224904257       -5.0809326166
 H       -14.7058034356       -0.4067999338       -4.1413810925
 H       -14.5371311148       -2.1530461821       -4.4487615942
 H       -11.4257189631       -2.0332002695       -3.6027819676
 H       -12.5772420753       -3.2865525390       -3.1353810511
 H       -11.8232579821       -2.2784603068       -1.8418483864
 H       -14.6634096683        4.4336109942        0.4710517078
 H       -15.6426979115        4.1920129010       -0.9484046883
 H       -15.1266572340        5.8420719743       -0.4950360702
 H       -13.5869765048        4.3883461956       -3.8698509348
 H       -14.4784227437        5.7921154224       -3.1888992383
 H       -15.2027070888        4.1759752230       -3.0891336982
 H       -10.7619633830        9.1185748582        3.7728034726
 H        -9.3848403202       10.2251800535        3.5429228954
 H        -9.1348082999        8.4297666866        3.6526364250
 H       -10.6260118897       10.5421171612        0.1881220815
 H       -10.0575035339       11.3012877273        1.6470015357
 H       -11.6896383611       10.5224041025        1.6082935460
 H        -2.5803188184        6.7207947377       -0.2973640565
 H        -3.6514777429        6.4020003095        1.1327593450
 H        -2.7373434184        7.8939853391        1.1598219459
 H        -3.3434913638        8.2956609530       -2.0256106227
 H        -2.9178718653        9.3943561018       -0.7526817526
 H        -4.4661645777        9.6030079042       -1.8042937278
 H        -6.7291603670        0.3328629511       -0.4218556387
 H        -6.0169542435        1.6387663039        0.5991541432
 H        -5.7785885767        1.7015617960       -1.1189852176
 H        -7.5498054054        2.9277985671       -2.5823991560
 H        -9.1926147407        2.8193828957       -1.9886079640
 H        -8.3936445796        1.3775666140       -2.3235780485
 H        -9.2058407311       -2.1810716680        4.1415670348
 H        -9.1578362180       -3.3146671470        2.7536667966
 H       -10.4111096509       -3.4680491914        3.9559376483
 H       -12.5654512503       -2.0902937447        1.2042804342
 H       -12.4339856010       -3.1153143276        2.4363504007
 H       -11.3754076756       -3.3574374305        1.1416212607
 Na      -12.0235407018        0.5390627112        0.2347493285
