117

 C       -13.3059070828        7.2772375259       -0.7106448292
 C       -12.4594628061        6.8432154876        0.5012105241
 O       -12.2813162377        5.6384189753        0.6317058543
 C       -12.0424577476        7.8907699043        1.7143065149
 C       -12.3939605200        7.1253943541        3.0375141600
 O       -11.4841228238        6.3426657980        3.4292305215
 C       -13.7713062362        7.3282866358        3.6131252197
 C       -14.1008777406        6.1693334676        4.6494620966
 C       -14.7458462724        4.9214963792        4.0426203171
 O       -15.2556932364        4.8912802141        2.9252329248
 C       -14.6535593376        3.6971606187        4.8800285751
 C       -14.2432453609        2.4200507136        3.8494785739
 O       -13.0758261561        2.2229809151        3.6426670519
 C       -15.2961493568        1.4784667676        3.3824378934
 C       -14.8051790302        0.5583030980        2.3927791545
 C       -13.8946609100        1.1652372506        1.3758936214
 O       -13.8619686843        2.3570469523        1.1655225253
 C       -12.9252819023        0.2168811742        0.5244365398
 C       -11.7612440312       -0.1084089557        1.4280203203
 O       -12.0139196496       -0.4304994850        2.5854927904
 C       -10.3543439743       -0.2952119454        0.9464353109
 C        -9.1756598535        0.3513884382        1.6851070455
 C        -9.4386617107        1.8672525288        1.7830277364
 O       -10.5892784195        2.2330548743        1.7436809144
 C        -8.2824309775        2.7799106508        2.1751009093
 C        -7.3312240647        2.7644167188        0.8175266345
 O        -7.9165090447        2.8902979358       -0.2973653530
 C        -5.8039985203        2.8252802098        0.9400610638
 C        -5.0743620019        3.0470905421       -0.5307488056
 C        -5.6966834346        1.9183749057       -1.4891002170
 O        -5.9563205919        0.8319895121       -0.9072880495
 C        -5.9411027110        2.0964424804       -3.0782659927
 C        -4.5766067238        1.9981981186       -3.9698210172
 O        -3.4906568106        2.0521088591       -3.3750458132
 C        -4.5438612912        2.0232049644       -5.4055163852
 C        -4.3344306453        3.4883504324       -6.0733624181
 C        -4.7789396059        3.4899846402       -7.5022335953
 O        -5.2601818080        2.5082353231       -8.0459322677
 C        -4.9789692797        4.8769244825       -8.1270841166
 C        -6.1064245440        5.7336007486       -7.3392104859
 O        -7.1444234983        5.3182680910       -6.9421208856
 C        -5.9285510416        7.2981202019       -7.2809517783
 C        -3.6228673170        5.7029206181       -8.1054477659
 C        -5.6129660738        4.8450730912       -9.6230070131
 C        -7.0117952163        0.9764461350       -3.4255722190
 C        -6.6249738813        3.5187007050       -3.2981131169
 C        -8.7172104513        4.3134267232        2.5330271713
 C        -7.8353169065        2.1248149747        3.5764202534
 C       -13.4468624820       -1.2140242097        0.3010207584
 C       -12.6497302394        0.8204534017       -0.8583772461
 C       -13.5872244788        3.6942904409        5.9954626062
 C       -16.1317757384        3.4298568949        5.5619745305
 C       -10.3905705965        8.0083987520        1.5687513761
 C       -12.6484562183        9.3663836053        1.7321188458
 H       -12.7211904630        7.0091445377       -1.6358065550
 H       -13.7057479201        8.2997937899       -0.6619457630
 H       -14.1623764318        6.4721220825       -0.7255154618
 H       -14.3815867131        7.4602873924        2.7642452634
 H       -13.7542985297        8.3079004308        4.2100883703
 H       -14.6057125447        6.5123129363        5.4726756471
 H       -13.0759058108        5.9526644215        4.9504215301
 H       -15.9568439019        2.0733152375        2.7310959538
 H       -15.8084373868        1.0818958538        4.2380343778
 H       -15.6575692602       -0.0155643869        1.9397622564
 H       -14.2634113255       -0.2509281396        2.9685837152
 H       -10.2673910063       -0.0027672621       -0.0607701735
 H       -10.1435565604       -1.3366508668        0.9994481466
 H        -8.2705608027       -0.0904747739        1.3896814541
 H        -9.2138415748        0.1254172485        2.8253278254
 H        -5.4387332348        1.8380618112        1.3975101173
 H        -5.3474896577        3.4230189070        1.7391964688
 H        -3.9496771428        3.0102758166       -0.4528590753
 H        -4.9407672548        4.0705342526       -0.8287421607
 H        -5.2834596667        1.4147637185       -5.8107435106
 H        -3.7354761623        1.4226022398       -5.8053119198
 H        -3.3242015910        3.8658596496       -5.8497869637
 H        -4.9587651295        4.2678486891       -5.6470402483
 H        -5.0512788213        7.4985708186       -6.5471915373
 H        -6.9143949180        7.6568937424       -7.0864694709
 H        -5.6051137221        7.6843539100       -8.1819996042
 H        -3.6291393266        6.2163094126       -9.0530363730
 H        -2.9509013978        4.7964376024       -8.2548204336
 H        -3.5228428885        6.1200814660       -7.0700125982
 H        -6.7241016158        4.6963258059       -9.6244749207
 H        -5.2769724666        4.0496562128      -10.1867100852
 H        -5.2502474980        5.7590459839      -10.1599832738
 H        -7.9757925559        1.0193631661       -3.0429301951
 H        -6.5875328670       -0.0459272035       -3.1628245446
 H        -7.2807535323        1.1351543088       -4.4473304666
 H        -5.9671563977        4.3341988672       -2.9275899511
 H        -7.5921829471        3.5086688617       -2.7796599466
 H        -6.7515449093        3.8782380492       -4.3311115601
 H        -7.8731078813        4.8771160525        2.4650164212
 H        -9.1836108308        4.4002887674        3.5509223279
 H        -9.3457911270        4.6132187752        1.7033726277
 H        -8.3102722783        2.4636263056        4.5031912870
 H        -6.7128757103        2.2678164399        3.7204204793
 H        -7.9856770993        1.0606885307        3.6151613256
 H       -14.4984710878       -1.1123487592        0.0182658683
 H       -13.4506191834       -1.9030160216        1.1298085514
 H       -12.8442446924       -1.5028995495       -0.5449672646
 H       -11.6134172008        0.6007427990       -1.1425273814
 H       -12.6835083303        1.9224609508       -1.0375002485
 H       -13.3840572716        0.3388090946       -1.4468337956
 H       -13.1715540740        4.6660946883        6.3422632558
 H       -12.7123692352        3.0383042425        6.0659819946
 H       -14.1041803228        3.3960273602        6.9132251354
 H       -16.2781153477        4.1643134252        6.2697289777
 H       -16.0092155952        2.5689131952        6.1456222706
 H       -16.9345249794        3.5472029313        4.8113709744
 H        -9.9830862746        7.4805367397        0.7230715141
 H       -10.0830413777        7.6386479766        2.5390283523
 H       -10.1660699008        9.0332950710        1.4203204691
 H       -12.1620149962       10.0274001625        2.4677147811
 H       -13.7405737610        9.2892849856        1.9732352536
 H       -12.5555056483        9.7545688006        0.7194264395
 Na      -12.1214076718        3.9564352742        2.1482628611
