117

 C       -12.1165461234        0.0138456223        4.6044818925
 C       -11.8381411315       -0.5592536037        3.2202686053
 O       -12.6033910141       -0.2810157709        2.3501832391
 C       -10.6293063878       -1.5430862984        2.9446583016
 C        -9.6511390511       -0.6476893493        2.1112100883
 O        -9.8864689496       -0.5450694609        0.9104350461
 C        -8.5973649263        0.2980581286        2.7734455295
 C        -8.9568735462        1.7210491695        2.3484566836
 C        -9.0706816483        1.9769830324        0.8556289004
 O       -10.1054766791        2.1355576532        0.2978409119
 C        -7.7164460308        2.0794721576       -0.0163567059
 C        -6.8110299099        3.3688490453        0.3403236461
 O        -6.5388625047        3.5743711869        1.5019775935
 C        -6.2572527547        4.2297713752       -0.7939346964
 C        -5.3480920999        5.2995752852       -0.2515094621
 C        -5.4816269098        6.5932757113       -1.1376437915
 O        -6.1736882935        6.5086435846       -2.1368033096
 C        -4.7189713922        7.9214906423       -0.7552936156
 C        -5.7600940648        8.6154676914        0.2211297799
 O        -5.7559809144        8.1898418137        1.3582111875
 C        -6.4399127722        9.9111585288       -0.3360809198
 C        -7.7922709272       10.2842368579        0.3281945560
 C        -8.6566512283        9.0382314387        0.4807469887
 O        -8.4438198559        8.0492313264       -0.2128375287
 C        -9.8942704175        9.1197841953        1.5041937972
 C       -10.8317059086        7.7878558878        1.3831027622
 O       -11.2541603297        7.3110016712        2.4169164194
 C       -11.2428234523        7.2411642310        0.0111564072
 C       -12.3788979773        6.2523896347        0.0948429101
 C       -12.7228282137        5.6420942477       -1.3655464869
 O       -12.2708841741        6.0883404213       -2.3863147670
 C       -13.9182555164        4.4885127623       -1.4780932646
 C       -13.2046271322        3.1081016318       -1.3547378433
 O       -13.3886853846        2.2996929851       -0.4619780376
 C       -12.1909674858        2.7694801831       -2.4907191248
 C       -12.6837149037        1.5898578499       -3.3542651478
 C       -12.2516528243        0.2235864887       -2.7088271356
 O       -11.2133877105        0.0577579966       -2.1200246808
 C       -13.1485226015       -1.0509328663       -2.9249979927
 C       -13.7104201534       -1.6811512854       -1.5470062436
 O       -13.4801402468       -1.1691279516       -0.4761740526
 C       -14.7078329449       -2.8419734455       -1.5753182702
 C       -14.1004505607       -0.8702859980       -4.0504578823
 C       -12.1073961585       -2.1808724134       -3.3066744377
 C       -14.9533825644        4.6966236749       -0.3958089180
 C       -14.4961101229        4.6352441820       -2.8442015800
 C        -9.4365357907        9.2999481246        2.9784904899
 C       -10.6918723373       10.3206086258        1.0415295190
 C        -3.3971845695        7.7937357830        0.1893980384
 C        -4.4462354263        8.6456708557       -2.0874150708
 C        -6.7506587532        0.9366822939        0.2092190383
 C        -8.1620444967        1.9362762784       -1.5646073417
 C       -10.0729604265       -2.2533072105        4.1828390844
 C       -11.0144860127       -2.6720930288        1.9400659484
 H       -12.0143293684       -0.7768854434        5.3537400124
 H       -13.2436742672        0.3182214972        4.7084925250
 H       -11.4616669265        0.7735038535        4.9478652036
 H        -7.6005800299       -0.0046079886        2.4872578794
 H        -8.5818090086        0.2794192310        3.8441393490
 H        -8.3692618799        2.5165289446        2.8505885724
 H        -9.9700507063        1.9660890881        2.6806523810
 H        -7.0939075774        4.7114473359       -1.2987137997
 H        -5.7051929802        3.6061168188       -1.4990781590
 H        -4.3029713394        5.0701202787       -0.2751390803
 H        -5.6555510766        5.4744393252        0.7915611548
 H        -6.7357205910        9.6435987756       -1.3410805732
 H        -5.6610821144       10.7460929377       -0.3828592605
 H        -8.3950424873       10.9444668470       -0.2620365253
 H        -7.7015542272       10.7543584565        1.3132361612
 H       -10.3940417682        6.7047520263       -0.5213608133
 H       -11.3385021385        8.1052070552       -0.6772745280
 H       -13.2644605825        6.6725635669        0.5086575037
 H       -12.1942267764        5.3640016950        0.6929176609
 H       -11.2143965031        2.4711663459       -1.9922772266
 H       -11.9853079887        3.5936780241       -3.1697505447
 H       -12.2137164896        1.5803215441       -4.3141814522
 H       -13.7338710725        1.6575591399       -3.4600127014
 H       -14.5688584472       -3.4186332722       -0.7063040511
 H       -14.6645732792       -3.5255617013       -2.4617062511
 H       -15.6843780397       -2.3702333524       -1.5127369542
 H       -13.5212880767       -0.6506465534       -4.9574455260
 H       -14.7653569740        0.0321339721       -3.9864405368
 H       -14.6908406367       -1.7443401224       -4.2313509063
 H       -11.6363122418       -1.9194752999       -4.2664734763
 H       -12.6848945610       -3.1145403431       -3.2601642911
 H       -11.2561905471       -2.1545000923       -2.5831622198
 H       -14.4969818523        4.7332305284        0.6060286603
 H       -15.7098415001        3.9688656130       -0.3688668817
 H       -15.4732082045        5.6689144059       -0.5793776540
 H       -13.8914478397        4.4434053342       -3.6807062197
 H       -14.7758048560        5.7010761402       -2.9489877496
 H       -15.4539845789        4.0991120094       -2.8869420208
 H       -10.1249323140        8.7495376237        3.6058935377
 H        -9.4274777192       10.2797812160        3.3197074386
 H        -8.4160771673        8.9091225574        3.1959520395
 H       -10.9597875875       10.3236528011       -0.0347519252
 H       -10.0122270220       11.1599247793        1.2920428745
 H       -11.5623040778       10.5913992547        1.6449567875
 H        -2.7125684359        7.2666495279       -0.3497857245
 H        -3.7185497551        7.2084918020        1.0963171097
 H        -2.9832220918        8.7506200097        0.4426616998
 H        -3.6055311147        8.1882291857       -2.6217963410
 H        -4.1462429916        9.7097168379       -1.9488251436
 H        -5.3607481285        8.7327900080       -2.7346723243
 H        -7.1800899451       -0.0785612342        0.0610987881
 H        -6.3426615508        0.9721508675        1.2083130006
 H        -5.9187596757        1.0469518255       -0.4489159365
 H        -7.2887771771        1.7884243047       -2.2125958682
 H        -8.7672138640        2.7832855539       -1.9431709825
 H        -8.7384123171        1.0067408263       -1.6937497034
 H        -9.5896924562       -1.5906371469        4.8536401232
 H        -9.2889875344       -2.9774097689        3.9108668480
 H       -10.8685243998       -2.7669859190        4.7313366610
 H       -11.4418042190       -2.2650633835        0.9865410209
 H       -11.6524289012       -3.4296979140        2.4006136895
 H       -10.0858545790       -3.2762024307        1.6028510185
 Na      -11.9464983015        0.4773491278        0.3053431385
