117

 C       -13.3263752925       -0.6479099629        4.5941852847
 C       -12.2890876395       -0.2344350932        3.5183207319
 O       -12.6249590545        0.5258712172        2.6272151904
 C       -10.8928188780       -0.9489009074        3.4789123812
 C        -9.8121739115       -0.0190244961        2.8901578029
 O        -9.3058592092       -0.3469740485        1.7754187468
 C        -9.4043055243        1.3460869007        3.4466575284
 C        -8.4029421665        2.2258947990        2.6616440754
 C        -8.6649452949        2.0211630248        1.0701422896
 O        -9.7510994234        2.2883615260        0.6369191408
 C        -7.4220363928        1.8042724472        0.1291282798
 C        -6.4515093806        3.0904466809        0.2229359343
 O        -5.7211426606        3.1278575367        1.1936760204
 C        -6.5728171529        4.2675788324       -0.7401993246
 C        -5.7632791452        5.4706628006       -0.2787399844
 C        -5.4198313284        6.3257123154       -1.5116626423
 O        -5.4986965930        5.9255138630       -2.6412889294
 C        -4.8675103975        7.8355983758       -1.1876742835
 C        -5.8647892388        8.6522421749       -0.3238145141
 O        -6.1467626646        8.1356537013        0.7649340748
 C        -6.7115974324        9.8110505449       -0.8326056865
 C        -7.8731130952       10.1594333539        0.1035826887
 C        -9.0186806741        9.1994325131       -0.0961780570
 O        -9.2549627722        8.6157141523       -1.1111917119
 C       -10.0742204449        9.0570906341        1.1290753238
 C       -10.7388951959        7.6250779024        1.0584413173
 O       -10.2361126790        6.6870818870        1.6573165578
 C       -11.9691529277        7.4354851447        0.1455956636
 C       -12.5977380350        6.0861762748        0.2570132762
 C       -13.0654577950        5.4733686139       -1.0366536620
 O       -12.7435577214        5.9311487781       -2.1036270845
 C       -14.0409251786        4.1733969215       -1.0516028580
 C       -13.0581801684        2.9867194509       -1.0160107515
 O       -12.7544736583        2.4559589318        0.0320855639
 C       -12.2810280450        2.7480108747       -2.3073926958
 C       -12.8626682328        1.7019998902       -3.2017807500
 C       -12.3199920732        0.2902513807       -2.7893954328
 O       -11.2319594005        0.3166692293       -2.2679729945
 C       -12.9385046587       -1.0418389361       -3.0849157977
 C       -13.2150979164       -1.7302656209       -1.6967749364
 O       -12.6541967112       -1.3518873471       -0.6624770692
 C       -14.0312180073       -3.0340693933       -1.6651341461
 C       -14.1546494209       -0.9260171739       -4.0300837838
 C       -11.6942126707       -1.9858302441       -3.7598263627
 C       -14.9155096665        4.1887166794        0.2256676841
 C       -14.8771528433        4.2181311020       -2.3479872249
 C        -9.2909246806        9.1027174490        2.4383775851
 C       -11.2063208807       10.1130968240        1.0191978016
 C        -3.5743551802        7.5634096551       -0.3678065398
 C        -4.5795326413        8.6711667548       -2.4709311758
 C        -6.5808629534        0.5597629433        0.4456101992
 C        -8.0040188507        1.5112070031       -1.3599878856
 C       -10.4901726537       -1.5815024404        4.7821630041
 C       -11.1850624133       -2.1002565365        2.4027208399
 H       -13.8533500998       -1.5122863597        4.1541860254
 H       -14.0217737291        0.1158007131        4.6205557697
 H       -13.0692047519       -0.9274261389        5.6411083358
 H        -8.9218717421        1.1728906575        4.4254197039
 H       -10.2656888857        1.9641602157        3.7327781573
 H        -7.3670066100        2.0408287661        2.9294671933
 H        -8.7904918718        3.2071148339        2.8653172176
 H        -7.6138841262        4.4737288011       -0.8884321437
 H        -6.2579571646        3.8471672468       -1.7199220799
 H        -4.8014104658        5.0600752928        0.1891724970
 H        -6.2060978474        6.1269255876        0.5009161975
 H        -6.9763698705        9.6660305970       -1.8490654267
 H        -6.0644432858       10.6623393525       -0.8707449812
 H        -8.2956130049       11.1770775871        0.0294442098
 H        -7.4496352147        9.9615502046        1.1008508795
 H       -11.5912406213        7.6735682170       -0.8597305039
 H       -12.7798355033        8.1088155211        0.3893207102
 H       -13.4713542734        6.0232213996        0.9068774190
 H       -11.9345592453        5.3143606462        0.7993526841
 H       -11.2219073395        2.5251487312       -2.1009524976
 H       -12.2446910252        3.6599329061       -2.8883441719
 H       -12.5687374483        1.8122774624       -4.2853574147
 H       -13.9721996583        1.6289442665       -3.2257251298
 H       -13.5254160608       -3.6878254022       -0.9652406844
 H       -13.9950052959       -3.5347167949       -2.6153305425
 H       -15.0969098040       -2.9079928158       -1.3902664586
 H       -13.9518805545       -0.1931498441       -4.8142930736
 H       -15.1229444750       -0.6734374382       -3.5768919180
 H       -14.3606111940       -1.8899914524       -4.5254598903
 H       -11.5697810026       -1.5350495576       -4.7287648678
 H       -12.0276459267       -2.9945633252       -3.9181694307
 H       -10.8407867674       -1.9754708949       -3.0517515987
 H       -14.2437556330        4.3581925841        1.1023530464
 H       -15.4313833054        3.3092718962        0.4667568230
 H       -15.6104831354        5.0188885395        0.2116050251
 H       -14.2000662718        4.2711506345       -3.1902844159
 H       -15.4741381857        5.1839671816       -2.2880855184
 H       -15.5244338150        3.4086359473       -2.5862727501
 H        -9.9379546796        9.0054188840        3.3416687634
 H        -8.8457602751       10.1206536538        2.5907704531
 H        -8.4787722916        8.3591502875        2.5919506038
 H       -11.7213100554       10.1308889567        0.0626647013
 H       -10.7328838572       11.0827437079        1.1303549272
 H       -11.9295800922        9.9660484041        1.8110813661
 H        -3.0374420670        6.7570408305       -0.9150273887
 H        -3.9178281853        7.1807097664        0.5841471887
 H        -2.9561387214        8.4771307828       -0.2496546200
 H        -3.8852239659        8.3195639989       -3.2803899573
 H        -4.3083167596        9.6403985252       -2.2484079845
 H        -5.4768856169        8.7662986228       -3.0751190082
 H        -7.1704417492       -0.3418678292        0.5378185806
 H        -6.0976207551        0.7330573194        1.4275442127
 H        -5.7953101215        0.3828871589       -0.2864404833
 H        -7.2032314891        1.3377995638       -2.0053101332
 H        -8.6428379306        2.3004422638       -1.7188933914
 H        -8.6099950878        0.6162737353       -1.2561063377
 H       -10.3050038945       -0.7660241451        5.4790415349
 H        -9.6266505163       -2.1653843728        4.6506703436
 H       -11.2675386905       -2.2276536408        5.2866145117
 H       -11.6635591913       -1.6156735818        1.5931312552
 H       -11.9577505919       -2.7954922041        2.7672862219
 H       -10.3035849939       -2.5750884455        2.0855254634
 Na      -11.4644273106        0.5557669270        0.1241805551
