117

 C       -13.7002904572       -0.4132337145        3.8550710676
 C       -12.4237435178       -0.0841913586        3.1855369849
 O       -12.4759307280        0.7610625622        2.3131164779
 C       -11.0438805325       -0.7001043235        3.6850877066
 C        -9.8574792894       -0.0029939494        2.8373852012
 O        -9.4810009764       -0.5610098701        1.8362366500
 C        -9.3510626020        1.3829887787        3.3780808741
 C        -8.2880395148        2.0908612246        2.5030569256
 C        -8.4755846599        1.9853115243        1.0592106402
 O        -9.5469595967        2.3758802166        0.5452031044
 C        -7.2564789102        1.6661850500        0.0974926366
 C        -6.3151520653        2.9829242543        0.2051679540
 O        -5.3825660889        3.0249854641        0.9714802515
 C        -6.6453986846        4.1708653224       -0.7260496762
 C        -5.9419844057        5.4116406357       -0.2257393009
 C        -5.4577648720        6.1642126460       -1.5504115322
 O        -5.5938185039        5.6535226616       -2.6451473556
 C        -4.9132980296        7.6612358456       -1.4168524675
 C        -6.0534362990        8.4143898207       -0.6119189199
 O        -6.2486597760        8.2440794077        0.5664833112
 C        -6.8685242466        9.4896310319       -1.4360007849
 C        -7.9401838535       10.0471427458       -0.4021538981
 C        -9.2893084194        9.2284264638       -0.3910228852
 O        -9.8302345325        8.9559511178       -1.4593352071
 C       -10.0239786756        9.0177211410        1.0095426480
 C       -10.7329207830        7.6186084150        0.8975126272
 O       -10.1285139141        6.6156740565        1.2135294762
 C       -12.0867844242        7.4793524138        0.1919423039
 C       -12.8422703706        6.1427818843        0.3986889773
 C       -13.3869562112        5.4502213241       -0.8753013015
 O       -13.3773121850        5.9387184223       -1.9745149356
 C       -14.1962570832        4.1503919834       -0.6496475466
 C       -13.1995118439        2.8833006472       -1.0581951967
 O       -13.0338226333        1.9644211531       -0.2587931845
 C       -12.4828233228        2.9392328256       -2.4075441142
 C       -12.5688726709        1.6509278028       -3.1911401674
 C       -11.8722757111        0.3979056493       -2.5612719534
 O       -10.8300692209        0.5665096622       -1.9564935371
 C       -12.5284455535       -1.0492322423       -2.9038168834
 C       -12.8611834165       -1.7077830217       -1.5088918686
 O       -12.7004197523       -1.1118704055       -0.4468297735
 C       -13.3852774215       -3.1799178447       -1.5297563535
 C       -13.7869113255       -1.0066067930       -3.7825834090
 C       -11.3448157033       -1.8328036885       -3.6339253949
 C       -14.7989291027        3.9889189354        0.7616144590
 C       -15.3899001772        4.1700474410       -1.6760836408
 C        -9.0500307351        8.9730517921        2.2282917401
 C       -11.0576007741       10.2782021126        1.2450803120
 C        -3.6508279373        7.7253081456       -0.5688093673
 C        -4.6410107222        8.3409969640       -2.7160576963
 C        -6.3341943586        0.5804895153        0.7294585230
 C        -7.8231604076        1.3501119191       -1.2842608087
 C       -10.9745605750       -0.3960574830        5.2630085971
 C       -11.0429213564       -2.2300524803        3.3403889403
 H       -13.9713566354       -1.4318045390        3.8632773552
 H       -14.5335247400        0.2247591259        3.3495766777
 H       -13.6523342556       -0.0965622072        4.8725202554
 H        -9.1096515090        1.3109197154        4.4433165896
 H       -10.2464800024        2.0211806737        3.3407108454
 H        -7.2656024998        1.7837450848        2.7201934230
 H        -8.2914615640        3.1950483234        2.6309799205
 H        -7.7094534549        4.3518667318       -0.8568828167
 H        -6.2756759429        3.9605825227       -1.7476903628
 H        -4.9847666590        5.2223665784        0.3906102649
 H        -6.6506228029        6.0336469390        0.3251843384
 H        -7.2984546790        9.1173677356       -2.3778360679
 H        -6.2873616728       10.2694331282       -1.7913555727
 H        -8.2865965813       11.0563541120       -0.7400545410
 H        -7.4676509449       10.1618784182        0.5727647735
 H       -11.9191832711        7.6828039141       -0.8450145596
 H       -12.7888336404        8.2199302109        0.6543627582
 H       -13.7766878228        6.1652428978        0.9416011903
 H       -12.0846214044        5.4533574439        0.9137819647
 H       -11.4886127916        3.2437626731       -2.1340914382
 H       -12.9659773990        3.6976416524       -3.0694200337
 H       -12.0557058688        1.7564088782       -4.1955178461
 H       -13.5927473075        1.3488607543       -3.4278092422
 H       -13.3341412576       -3.5531397977       -2.5778044116
 H       -14.4113857041       -3.2629981228       -1.1769957366
 H       -12.7568878058       -3.8254501056       -0.9649153745
 H       -13.7395402788       -0.2445880625       -4.5922315388
 H       -14.5920586788       -0.6704483273       -3.1118037687
 H       -14.1570218025       -1.9906547282       -4.1823354447
 H       -11.0769976208       -1.2511009660       -4.5318182502
 H       -11.7149198118       -2.8292850109       -3.9399851770
 H       -10.5565235329       -1.8787386912       -2.9229850529
 H       -14.1196984830        4.0681292431        1.5520037474
 H       -15.1876675940        2.9344800931        0.8074873466
 H       -15.5959828562        4.6627798001        0.9636288482
 H       -15.1047793218        4.6352411167       -2.6430350226
 H       -16.2660950133        4.5384414903       -1.2583216716
 H       -15.6932881642        3.1286615285       -1.8710165893
 H        -9.6673825008        8.8629992793        3.1506908754
 H        -8.4882419540        9.9172369811        2.4586638631
 H        -8.3700284683        8.1187528213        2.1047462236
 H       -11.7691651923       10.3059898383        0.4605504910
 H       -10.4280290219       11.1111077686        1.2971771329
 H       -11.6643735670       10.2349484297        2.1142596875
 H        -2.8364950083        7.2621500653       -1.1672562549
 H        -3.8058045651        7.2540299514        0.4177280342
 H        -3.3841341847        8.7901103157       -0.4265108943
 H        -3.8055245293        8.0027146151       -3.2476537200
 H        -4.3375082451        9.3805786560       -2.5369468724
 H        -5.3675442363        8.2257023812       -3.4809197182
 H        -6.7896798938       -0.3885116067        0.8307878319
 H        -5.8988260378        0.8430413893        1.6818516832
 H        -5.4870883219        0.4518159329        0.0228293528
 H        -7.1350820583        1.6787342489       -2.0539526319
 H        -8.7433074176        1.8318328981       -1.3596870865
 H        -7.9654824418        0.3307145946       -1.3553006309
 H       -11.3302349692        0.5950901496        5.5804435772
 H        -9.9637572622       -0.5189098841        5.6815667003
 H       -11.6010075609       -1.1205143450        5.6932148682
 H       -11.1996986143       -2.4381599286        2.3042861816
 H       -11.8071163605       -2.6080247853        3.9056548623
 H       -10.1664536280       -2.7144022219        3.7650680640
 Na      -11.3653729891        0.5097953397        0.2846219021
