117

 C       -13.8667866296       -0.4256644168        3.8882912805
 C       -12.5615584428       -0.0544369369        3.1515504582
 O       -12.6062635190        0.6088639919        2.1559095050
 C       -11.1892166106       -0.4200395148        3.9304256288
 C       -10.0393751025        0.0634971426        3.0314027676
 O        -9.9737764223       -0.3400706764        1.8273391219
 C        -9.0896780653        1.2219879338        3.4795055445
 C        -8.2076943864        1.9683223477        2.4685692940
 C        -8.3312563250        1.8045856132        0.9634671006
 O        -9.3701680396        2.1149376968        0.4677486303
 C        -7.0778163417        1.4685202507        0.1231323784
 C        -6.2403570936        2.8966971570        0.3376926114
 O        -5.3374990340        3.0250378546        1.1273108100
 C        -6.5763941455        4.0859516718       -0.6697802964
 C        -5.7556150445        5.3402847274       -0.3389507122
 C        -5.6136349632        6.2000430781       -1.6718979608
 O        -5.8181946345        5.7232965536       -2.7746072072
 C        -5.0312398595        7.6787749609       -1.4906861076
 C        -6.1923285890        8.4220550307       -0.8234355907
 O        -6.3206866689        8.4232251749        0.3773677978
 C        -7.0900725065        9.3192026764       -1.6731253518
 C        -8.1614376956       10.0808612765       -0.7689325496
 C        -9.5387824830        9.2727080291       -0.5388570785
 O       -10.1183237733        8.8960910482       -1.5524137168
 C       -10.0625719593        8.9726465918        0.8730997125
 C       -10.7328210620        7.5981521720        0.7792544596
 O       -10.2226775800        6.6119842915        1.2462132245
 C       -12.0520542352        7.4537900388        0.0137562233
 C       -12.8002417606        6.1301542574        0.3618893391
 C       -13.4943063423        5.4686381325       -0.8274344909
 O       -13.4959184287        5.9651566355       -1.9244847447
 C       -14.1589469809        4.0885480857       -0.5597055155
 C       -13.2578370896        2.9619120684       -0.9982510631
 O       -13.1796981106        1.9162354151       -0.3138823775
 C       -12.4213365031        3.0257476416       -2.2743674244
 C       -12.7980795272        1.7810338076       -3.0616790065
 C       -11.9277506651        0.5783913033       -2.4896167565
 O       -10.8187657359        0.8096953517       -2.0821832151
 C       -12.3341870388       -0.9489109069       -2.7621393676
 C       -12.5331779867       -1.7698975093       -1.4280278839
 O       -12.1929310219       -1.2985089451       -0.3569070450
 C       -13.0914504311       -3.1775164583       -1.5143260014
 C       -13.5333533497       -1.0370101379       -3.7883697194
 C       -11.0912706052       -1.6131483912       -3.2798530787
 C       -14.6075162670        3.8729910223        0.9920925142
 C       -15.5337224339        4.0363495783       -1.3513220859
 C        -8.8339817636        8.7487328402        1.8274652689
 C       -11.0790729366       10.1003809811        1.2533089792
 C        -3.8362050855        7.5941327835       -0.5754112902
 C        -4.6686686661        8.2282981347       -2.8575397823
 C        -6.4781387697        0.2224689764        0.7588874098
 C        -7.3873363214        1.3113390778       -1.4703248776
 C       -11.1450188411        0.1467751051        5.3788652619
 C       -11.0987656008       -2.0138730612        3.9523856956
 H       -13.7126841504       -1.2632216348        4.4929142886
 H       -14.6914361923       -0.6745168716        3.1319201505
 H       -14.2670473542        0.3681979013        4.5268683255
 H        -8.3980073037        0.9390544671        4.2961021400
 H        -9.7171698957        2.0360776916        3.9090490529
 H        -7.1695886723        1.8187974823        2.7440614437
 H        -8.2645171689        3.0327505148        2.7003021262
 H        -7.6331747230        4.2204244908       -0.6666181556
 H        -6.2453671658        3.8423623630       -1.7165462900
 H        -4.7405292808        5.0891774502       -0.0254796026
 H        -6.2311546585        5.9206140928        0.3916278915
 H        -7.5708187759        8.8682614890       -2.5992421958
 H        -6.4748516762       10.0987822700       -2.1810096930
 H        -8.5762390311       10.8789002333       -1.4358582025
 H        -7.6524808697       10.5191030081        0.0818467135
 H       -11.6848102832        7.4813551698       -1.0157111206
 H       -12.7856087032        8.2326243565        0.1670294313
 H       -13.6257128140        6.2750305291        1.0387874466
 H       -11.9772672702        5.4824375507        0.7149544884
 H       -11.3775519412        3.0387571793       -2.0514170976
 H       -12.7506870435        3.8722191144       -2.8648653717
 H       -12.4786965107        1.8382460045       -4.1128848596
 H       -13.8114642206        1.4127846433       -2.9937673227
 H       -14.1930911546       -3.1916365698       -1.8208101047
 H       -12.9359008259       -3.6027310220       -0.5675290019
 H       -12.5764394963       -3.7643763218       -2.2875489029
 H       -13.2736614336       -0.6621063278       -4.7562007154
 H       -14.4030049740       -0.5303383993       -3.4995293495
 H       -13.7152649571       -2.0965826880       -4.0151414784
 H       -10.9277909814       -1.1751659829       -4.2958708347
 H       -11.2086169730       -2.7105462845       -3.2919209588
 H       -10.2752153878       -1.1981911462       -2.6817494376
 H       -13.7429233243        3.5873894170        1.6143045453
 H       -15.4470116893        3.1493699035        1.1576042592
 H       -14.9390627805        4.8139429115        1.4132706913
 H       -15.3067987489        4.3965423438       -2.3992056713
 H       -16.2338077373        4.7816171412       -0.9417738864
 H       -16.0335466274        3.0898421462       -1.3340975801
 H        -9.2296310663        8.2890457965        2.7162053240
 H        -8.4606100253        9.7941219355        2.0354645639
 H        -8.0376310965        8.2161506506        1.4167645011
 H       -11.6492373863       10.3461996378        0.3082897693
 H       -10.5326135090       10.9999461021        1.6396209141
 H       -11.7987638180        9.7550669748        2.0594320008
 H        -3.2126572499        6.6822221971       -0.7726181170
 H        -4.1972216324        7.5579097062        0.3984638285
 H        -3.2364692473        8.4652225938       -0.7297001903
 H        -3.9627961507        7.5999540865       -3.4601819338
 H        -4.1636647202        9.1824804526       -3.0062009098
 H        -5.6056553887        8.3184129651       -3.4522739783
 H        -7.2561895581       -0.4763367222        0.9003813359
 H        -6.0623195982        0.4212889078        1.7575308980
 H        -5.6526782785       -0.2632740075        0.1989950584
 H        -6.4341535201        0.8617188687       -1.9446556066
 H        -7.6301410111        2.2642029474       -1.9526589725
 H        -8.1962024935        0.5857166074       -1.5987565060
 H       -11.1666857897        1.2632864100        5.4008453686
 H       -10.2958239434       -0.1529545296        5.9474095363
 H       -12.0395702866       -0.2493156666        5.8799651117
 H       -11.0244141225       -2.3867262645        2.8935526642
 H       -11.9264627638       -2.4226921688        4.4975872593
 H       -10.2155846791       -2.3427353560        4.5160701171
 Na      -11.1548281172        0.8678555086        0.2766478740
