117

 C       -13.5606587724       -0.5918317770        4.2406784079
 C       -12.3855330315       -0.1008963377        3.4493413366
 O       -12.5268209110        0.7281161109        2.5650706563
 C       -10.9455182734       -0.7943755597        3.4515605496
 C        -9.8759968351        0.1354785688        2.8776109999
 O        -9.2296411205       -0.3064602301        1.9967752407
 C        -9.6204440868        1.5243423699        3.3941505626
 C        -8.3295449567        1.9761059370        2.6408748474
 C        -8.5950171554        1.8843789927        1.1384333800
 O        -9.7377956814        2.1068590494        0.6617083979
 C        -7.4043442586        1.6966633778        0.2148805376
 C        -6.4715781530        3.0357844579        0.2761061857
 O        -5.5509788252        3.0665057844        1.0331954579
 C        -6.7753934397        4.2355430710       -0.6898063042
 C        -5.8617944193        5.3918990095       -0.4468412766
 C        -5.4330368075        6.2542276922       -1.6871882093
 O        -5.2440647037        5.8440185662       -2.8028335728
 C        -4.9586160223        7.7546190489       -1.3108669604
 C        -5.9726811127        8.4989106998       -0.3540051958
 O        -6.1043840304        8.2368732964        0.8313434661
 C        -6.7651015535        9.7198941802       -0.9571574338
 C        -7.9372809007       10.2693296041       -0.1466829804
 C        -9.1641406489        9.3295748854       -0.2199490005
 O        -9.3695616046        8.8179237055       -1.3019940150
 C       -10.0926097401        9.0184614757        1.0532136965
 C       -10.7505150799        7.5978313656        0.9479804922
 O       -10.2280785770        6.6028230540        1.4477119994
 C       -11.9838793520        7.4812844689        0.1438161483
 C       -12.7180219286        6.1426073633        0.4562331886
 C       -13.2858215376        5.4813540712       -0.8915301552
 O       -12.9415318102        5.9962977305       -1.9311490884
 C       -14.1209964472        4.1634095982       -0.8521676765
 C       -13.0480830908        3.0611940773       -1.1037401776
 O       -12.8853052647        2.2956416049       -0.1703035172
 C       -12.2455171512        2.8748677289       -2.3928725286
 C       -12.8137203670        1.6682302795       -3.1371250516
 C       -12.1007796701        0.3497518468       -2.7212634244
 O       -10.9926697435        0.3864750660       -2.1587515901
 C       -12.7036590910       -1.0716844001       -3.0600040673
 C       -13.1731116661       -1.7127020430       -1.6599237511
 O       -12.8536369525       -1.2518034156       -0.5767468615
 C       -13.7201428494       -3.1171204391       -1.7060667281
 C       -13.9827821421       -1.0647358448       -3.9015958278
 C       -11.6811591741       -1.9227177153       -3.7500924430
 C       -14.9527169179        3.9046474362        0.4461521371
 C       -15.0630384611        4.2150394981       -2.0748786338
 C        -9.3107374790        9.0662760792        2.3813317714
 C       -11.1382503255       10.1416909843        1.0952257250
 C        -3.6650411575        7.6079071955       -0.5075230125
 C        -4.5627141303        8.4626164955       -2.5730155218
 C        -6.5264237445        0.4346510115        0.5913781348
 C        -7.9479801132        1.5918837405       -1.2768754079
 C       -10.5261787859       -1.1604317027        4.9524936110
 C       -11.0533857380       -2.1863474607        2.6814108315
 H       -13.9285496620       -1.5193107167        3.8204589186
 H       -14.4281895819        0.2025120832        4.3441298975
 H       -13.2534244155       -0.8342204168        5.2142539047
 H        -9.6317735878        1.7488113290        4.4460732934
 H       -10.4690131626        2.0643549620        2.9765674750
 H        -7.5019603508        1.2829107113        2.8375031314
 H        -8.1048134787        3.0407074613        2.8282479250
 H        -7.8486719737        4.5098899646       -0.4914700721
 H        -6.8003346021        3.8758648936       -1.7116547020
 H        -4.9912305789        5.0005346120        0.0122448061
 H        -6.2864590855        6.1091538245        0.2565662033
 H        -7.2011941389        9.5575611194       -1.9750915377
 H        -6.0234657426       10.5253286864       -1.2059451947
 H        -8.2383963196       11.2221273690       -0.5406937642
 H        -7.6658911451       10.3702006515        0.8927673181
 H       -11.6522727200        7.3922496107       -0.9191777380
 H       -12.7658536744        8.2691184177        0.2084553102
 H       -13.4751812045        6.1335295547        1.2547322498
 H       -12.1191842812        5.2999229264        0.6780307069
 H       -11.1848433637        2.6629396811       -2.1115822266
 H       -12.2395075971        3.7779441784       -3.0585107773
 H       -12.5900506524        1.6425920856       -4.1663231125
 H       -13.8552917825        1.4575849831       -3.0941802466
 H       -12.9397549317       -3.8459760222       -1.7932616081
 H       -14.4444006396       -3.2343218949       -2.5815569260
 H       -14.2584650743       -3.2756411792       -0.7990514396
 H       -13.7562670318       -0.5794049755       -4.8250406943
 H       -14.8346326800       -0.5854797399       -3.4555761823
 H       -14.3545543353       -2.0208368442       -4.1083866134
 H       -11.5886577337       -1.5569334996       -4.7791402991
 H       -12.0768511079       -2.9672387323       -3.8260530033
 H       -10.8199852724       -1.9234222031       -3.1046040375
 H       -14.4936212359        3.4865060921        1.3155904570
 H       -15.7780346503        3.1800107303        0.1894729204
 H       -15.4233096868        4.8684681763        0.7330268347
 H       -14.6504636513        3.7897960962       -2.9983028872
 H       -15.4907337996        5.1687623787       -2.1635354812
 H       -15.9830581601        3.5755818576       -1.8749662987
 H        -9.8531453073        8.5817119290        3.1680206562
 H        -9.2475366730       10.0269052624        2.7890439843
 H        -8.3232991307        8.6116584500        2.3346091926
 H       -11.7822783270       10.2359120970        0.1875236479
 H       -10.5994868455       11.0618054921        1.4131931161
 H       -11.8975797047        9.8520530964        1.8614443215
 H        -3.0855256274        6.8701504495       -0.9490453451
 H        -3.9789864287        7.3438511073        0.5210474752
 H        -3.1400383996        8.5330985429       -0.4900788817
 H        -3.9564151662        7.8566604091       -3.1556337249
 H        -3.9846159211        9.4319498124       -2.4041576156
 H        -5.2743768103        8.5702226146       -3.3749369341
 H        -7.1270002889       -0.4185608292        0.9688301879
 H        -5.8849073623        0.7266990416        1.3976265662
 H        -5.9201561053        0.0744853648       -0.2340479733
 H        -7.0678983164        1.3488836077       -1.9652638366
 H        -8.4059244508        2.6008074344       -1.4969103074
 H        -8.7810589348        0.8441543977       -1.3433282235
 H       -10.4429244407       -0.2711715274        5.5895213446
 H        -9.5007207615       -1.6792743770        4.9039911827
 H       -11.1988454541       -1.8241784705        5.4364762296
 H       -11.3471716535       -2.0735323587        1.5921924216
 H       -11.8047798629       -2.8523509435        3.1640489262
 H        -9.9820746144       -2.6496040995        2.8198535164
 Na      -11.2183615572        0.6073631052        0.2368549139
