117

 C       -13.7928288963       -0.4380008305        3.8656706766
 C       -12.4758888696       -0.0441071248        3.1661309740
 O       -12.5596525347        0.6886205172        2.1884830616
 C       -11.1621080494       -0.5022485560        3.8568383266
 C        -9.9996237076        0.0584263267        2.9437358032
 O        -9.8031859046       -0.3841977618        1.7920876494
 C        -9.1925975705        1.2096590423        3.5735940298
 C        -8.2930061507        1.9433662172        2.5782098978
 C        -8.4586136914        1.8978111438        0.9679936366
 O        -9.4524239208        2.2127832894        0.3807924388
 C        -7.1424510941        1.5915460288        0.1572136914
 C        -6.2261753500        2.9011112831        0.2201604565
 O        -5.3819390488        2.9336251761        1.0871444882
 C        -6.6573738079        4.1084840823       -0.6740495286
 C        -5.8927972512        5.4276491927       -0.3669289919
 C        -5.5270611289        6.2466482881       -1.6396728310
 O        -5.6830395857        5.8307802460       -2.7712171120
 C        -4.9994183930        7.6824130979       -1.4667206148
 C        -6.1311036693        8.5038936402       -0.7147186994
 O        -6.2667937886        8.1937035774        0.4788675312
 C        -7.1227407099        9.3882507769       -1.5008973680
 C        -8.1214746757       10.1734502421       -0.7199270214
 C        -9.4319463791        9.3183749448       -0.5237310671
 O       -10.0061995622        8.8903788822       -1.4788793477
 C       -10.0174189297        9.0355164941        0.9039273847
 C       -10.7543376677        7.5941019199        0.7305498709
 O       -10.2780454144        6.6080911033        1.2183288206
 C       -12.1420500196        7.4846877615        0.0308863207
 C       -12.7198039317        6.1059774419        0.3964042803
 C       -13.4982257367        5.5333865982       -0.7927419337
 O       -13.3658041310        6.0077469458       -1.9155105304
 C       -14.1952093596        4.2223822518       -0.5884046410
 C       -13.2865049454        2.9776877541       -0.9722624537
 O       -13.2685981504        2.0044095201       -0.2595146711
 C       -12.4234207472        3.0644431443       -2.2840291202
 C       -12.6290304256        1.8214458864       -3.2043872907
 C       -11.9240976112        0.5085203989       -2.5823869045
 O       -10.8931390320        0.7166333641       -1.9856760438
 C       -12.4070136428       -0.9767448864       -2.8261842754
 C       -12.7389189956       -1.7643269203       -1.3510312258
 O       -12.3941296733       -1.3156865075       -0.3134046809
 C       -13.2048370386       -3.2056682599       -1.5275165052
 C       -13.6144753000       -1.1374021224       -3.7682894760
 C       -11.1306846281       -1.6665646311       -3.4161396367
 C       -14.5823964950        3.8877025581        0.9028031836
 C       -15.4751719961        3.9778153788       -1.4567528392
 C        -8.9350675589        8.8174294445        1.9948112122
 C       -11.0615729186       10.0589768120        1.2591123309
 C        -3.7108502362        7.6785542980       -0.5312431634
 C        -4.6317410383        8.1385371591       -2.9155133235
 C        -6.4756281982        0.3307277788        0.6881173364
 C        -7.3702476730        1.3527652998       -1.3347824067
 C       -11.0670231943       -0.0471981963        5.2983007603
 C       -11.0918329694       -2.1114969640        3.8375746164
 H       -13.8104366900       -1.4862683827        4.2808083158
 H       -14.5055949718       -0.3796313867        3.1447044543
 H       -14.1430033219        0.2391934768        4.7018102698
 H        -8.6259683117        0.7962644524        4.4025499843
 H        -9.8422767398        1.9581642301        3.9932462557
 H        -7.2196248082        1.8615139735        2.8212938538
 H        -8.4353063832        3.0068445994        2.7829658078
 H        -7.7537299655        4.1492098593       -0.5120806306
 H        -6.4873432969        3.9340128356       -1.7493243522
 H        -4.9785089635        5.2818114774        0.1315055281
 H        -6.5411886186        6.0719709213        0.2404299704
 H        -7.6053517833        8.6163240975       -2.1084375317
 H        -6.7213816848       10.0374516342       -2.3596277750
 H        -8.4286041243       11.0583676008       -1.2289349845
 H        -7.5987554372       10.4263442495        0.2063766731
 H       -11.9141790367        7.6540650856       -1.0736982076
 H       -12.8418802734        8.1926893749        0.4063008477
 H       -13.4786214170        6.0803370311        1.2108848973
 H       -11.8148423354        5.5861552174        0.5918529618
 H       -11.3352932948        3.1512588661       -1.9658962318
 H       -12.7421238938        3.9099321279       -2.8833844750
 H       -12.0938251020        1.9886550237       -4.0923380399
 H       -13.6364710229        1.5259565301       -3.4415490562
 H       -13.9275849073       -3.3265662585       -2.3445849172
 H       -13.5345450145       -3.6144966679       -0.6119551672
 H       -12.2880742498       -3.7456209603       -1.8889746123
 H       -13.4539560558       -0.7587614603       -4.7531984197
 H       -14.4786262280       -0.6155953634       -3.3818636962
 H       -13.8507552091       -2.1668537777       -3.9308583780
 H       -10.8805844531       -1.2000925000       -4.3832942288
 H       -11.3604899123       -2.7127980289       -3.5137613581
 H       -10.2725410321       -1.4113604736       -2.7260770578
 H       -13.6083054831        3.8126551746        1.4895529451
 H       -15.0634988584        2.9512850039        0.9675921233
 H       -15.2004158206        4.6395625253        1.4414984247
 H       -15.2988394640        4.4295853765       -2.4291473464
 H       -16.4706426580        4.3593776358       -1.0224603164
 H       -15.6373638988        2.9081774509       -1.5735966363
 H        -9.3475913946        8.5403362297        2.9690182135
 H        -8.3440506829        9.7358677495        2.0651354320
 H        -8.2588235741        8.0742356475        1.6285816277
 H       -11.8011266625       10.0706511325        0.4310469947
 H       -10.6001498998       11.0567798054        1.4547780181
 H       -11.5984117739        9.7460710756        2.1789174449
 H        -3.0556827825        6.8713606368       -0.8580633638
 H        -3.9741826983        7.5722073464        0.4796243344
 H        -3.1948755486        8.5976044853       -0.7088557016
 H        -3.9061239848        7.4407288805       -3.4664622506
 H        -4.0457842644        9.0129414709       -3.0174211120
 H        -5.5057411727        8.2669328454       -3.6000424810
 H        -7.2436082888       -0.4529599488        0.7049787179
 H        -6.0218652546        0.3523422171        1.6927785116
 H        -5.7029070447        0.0048382346        0.0171899839
 H        -6.3984783252        1.0310263974       -1.7652634012
 H        -7.7953321985        2.2596833563       -1.8823002680
 H        -8.0870470678        0.4519846544       -1.4012827642
 H       -10.9584318597        1.0316219974        5.4081639977
 H       -10.2432909813       -0.4894506701        5.8215515895
 H       -12.0319884671       -0.3893908832        5.8071476872
 H       -11.0820942145       -2.5155433628        2.7646931024
 H       -12.0087679076       -2.4865014670        4.4673512431
 H       -10.2607767289       -2.4977179936        4.4448459071
 Na      -11.1109729158        0.7622653898        0.1923527840
