117

 C       -13.5585503876        7.3620368449       -0.4680564533
 C       -12.5308420110        6.8374537945        0.5022270592
 O       -11.9931969823        5.7847611925        0.3666285328
 C       -12.0591602014        7.8544362663        1.6449722930
 C       -12.4527772274        7.1051385557        2.9083171947
 O       -11.7916771794        6.2388503643        3.4152495001
 C       -13.8720164976        7.4676896168        3.6608400236
 C       -14.0627499071        6.4989457170        4.7326443569
 C       -14.5285148783        5.0980307271        4.2088235958
 O       -15.1676721443        5.1017054276        3.1647259274
 C       -14.5788097024        3.7165876725        5.0407684399
 C       -14.1468132407        2.5602330468        4.0666712852
 O       -12.9898711355        2.4709901015        3.6446900615
 C       -15.2704343675        1.6502303906        3.5596617005
 C       -14.8573166821        0.5232943359        2.4502190009
 C       -14.1160868533        1.1010256706        1.2587276936
 O       -14.2103536686        2.2439255564        0.8123780689
 C       -13.0830422614        0.1544791373        0.5721098245
 C       -11.8884127270       -0.1440461015        1.5485498832
 O       -12.0351299021       -0.2302016384        2.7574189992
 C       -10.4356362309       -0.3537873970        1.0777912731
 C        -9.4904878698        0.5505066250        1.8668068245
 C        -9.4469490050        1.9867205933        1.6469065874
 O       -10.4768107195        2.5971098000        1.3628930305
 C        -8.1717281210        2.7934939033        2.0724215470
 C        -7.2140126887        2.7086245408        0.7418741836
 O        -7.6428791331        3.2314098918       -0.2116871467
 C        -5.6892612156        2.4238846539        0.9246525203
 C        -5.0101992747        2.6786261155       -0.4353993778
 C        -5.7794994870        1.6471382848       -1.4178494588
 O        -6.0621666723        0.5364738279       -1.0695566252
 C        -6.0187231671        2.2282195524       -2.8877304087
 C        -4.7235100486        1.9025577656       -3.6000540699
 O        -3.6514321837        1.5807228086       -3.1964124024
 C        -4.9422384987        2.1008152245       -5.2252288121
 C        -4.3687416440        3.2939381004       -5.8926049250
 C        -4.7583668374        3.4628096545       -7.4480740793
 O        -4.7601295407        2.4700034284       -8.0938936448
 C        -4.9098687201        4.8444164074       -8.1562030421
 C        -6.1519690661        5.6008773299       -7.5452345803
 O        -7.0519727547        4.8896379197       -7.0936716691
 C        -6.1609849717        7.0687349210       -7.2736782615
 C        -3.5423258880        5.5421915184       -8.0623224652
 C        -5.1688084716        4.5090918629       -9.6964555952
 C        -7.1045871687        1.2331868643       -3.4742873839
 C        -6.3644480323        3.7435682256       -3.0882232402
 C        -8.5244793689        4.3343005914        2.0564078117
 C        -7.2468119744        2.4641000963        3.3029441272
 C       -13.7551978236       -1.2355820742        0.1593405759
 C       -12.5836776442        0.8063435873       -0.6835145126
 C       -13.5534112001        3.7094536125        6.2083643983
 C       -16.0087196823        3.6158725332        5.5419245349
 C       -10.5301397692        7.8668921974        1.4379419739
 C       -12.6916179043        9.2321978226        1.3532745521
 H       -13.1651552721        8.0887892205       -1.1281645118
 H       -14.4129827691        7.7181636314        0.1231189069
 H       -13.8630391194        6.5549442155       -1.0527497270
 H       -14.8135379688        7.4887073078        2.9950733539
 H       -13.7789827682        8.4420823849        4.1123715370
 H       -15.0828196584        6.7628212373        5.2879520268
 H       -13.2204508840        6.6514996062        5.4246645208
 H       -16.0991511412        2.2030042524        3.0965021677
 H       -15.6474600942        1.1176122803        4.4861692666
 H       -15.8004674175        0.0794113402        2.1736521699
 H       -14.3795262132       -0.3117748701        2.9068192148
 H       -10.1456487783       -0.3226127254       -0.0051018134
 H       -10.1760661005       -1.3994331979        1.4202918671
 H        -8.4498067790        0.1808888110        1.5504744124
 H        -9.4181977083        0.4762225459        2.9146981039
 H        -5.3404721054        1.5660965309        1.3481447003
 H        -5.2232657266        3.1050509906        1.6465641895
 H        -3.9401733387        2.7117267465       -0.3022579400
 H        -5.1209827572        3.7333023678       -0.7799375111
 H        -6.0782706953        2.0672163025       -5.4679254151
 H        -4.6395314126        1.1896880324       -5.8001571779
 H        -3.2983815063        3.3674228780       -5.8062100744
 H        -4.6672192367        4.1357707130       -5.2631534298
 H        -5.3847157198        7.2546370072       -6.6394701131
 H        -7.1688768107        7.3234901263       -6.8796751695
 H        -5.9837648063        7.5850763292       -8.2485616882
 H        -2.8230012533        4.8498241271       -8.4606421262
 H        -3.3640218461        5.8411537659       -7.1032552048
 H        -3.7783050016        6.3596135884       -8.7168320607
 H        -6.1405762379        3.9967578698       -9.8018660100
 H        -4.4257871815        3.7245292251      -10.1459580694
 H        -5.1274543262        5.4112786494      -10.3128886501
 H        -7.8606131237        1.1497637667       -2.6342518853
 H        -6.8006111060        0.2690118773       -3.5505801628
 H        -7.7819602999        1.6908173394       -4.1647471290
 H        -5.4544490011        4.3694920228       -3.1567119857
 H        -7.0664250472        4.0393430206       -2.2915422031
 H        -6.8039214876        3.9485458092       -4.0394232592
 H        -7.5504051909        4.8701029940        2.4243783956
 H        -9.3985894698        4.5700590981        2.6667244727
 H        -8.7131991205        4.5568380777        0.9776438393
 H        -7.6871341078        2.8038186119        4.2339986323
 H        -6.4076573582        3.0557646772        3.2767839776
 H        -6.9545446204        1.3924504484        3.3663372179
 H       -14.7662656146       -1.1590342644       -0.1854176940
 H       -13.9929376661       -1.7954171586        1.0647850350
 H       -13.0063178022       -1.6950696311       -0.4717607824
 H       -11.8343295793        0.2149499275       -1.2218736242
 H       -11.9579724249        1.6454891277       -0.3796053088
 H       -13.4129385923        1.2284695738       -1.2973900098
 H       -13.8206931794        4.2727396203        7.0958396250
 H       -12.5806056352        4.1543598022        5.9820829095
 H       -13.2196118351        2.6900552999        6.4947394192
 H       -16.1186510510        4.3759221320        6.3748418328
 H       -16.0430987160        2.6226101668        6.0429386544
 H       -16.6964445874        3.7354754098        4.7265893954
 H       -10.5078839032        8.5591069669        0.5833523101
 H       -10.1215004551        6.8858006317        1.2321902733
 H       -10.0581862741        8.4047599330        2.2777614684
 H       -12.3745519213        9.8459232546        2.2104611775
 H       -13.7696330119        9.2724230519        1.3007068317
 H       -12.2725227823        9.6236989116        0.4255263341
 Na      -12.2897790095        3.9912275536        2.0795216383
