117

 C       -13.8872516294       -0.2786270038        4.2609075669
 C       -12.5314785818       -0.0066428640        3.5961860001
 O       -12.4943288728        0.1112274339        2.4089787199
 C       -11.2783102542        0.1124549806        4.4832948479
 C       -10.0066870852        0.4308799741        3.4443263514
 O        -9.9277519481       -0.2433470960        2.4256607110
 C        -9.1004343656        1.6409105592        3.6252413810
 C        -7.8638466417        1.5377820883        2.7045415578
 C        -8.1450884212        1.6759009102        1.1158273236
 O        -9.1593266231        2.0893802564        0.5986080038
 C        -6.9001424110        1.4342811644        0.1464934485
 C        -6.0712328082        2.8031164573        0.1927226666
 O        -5.4652778304        3.0578974955        1.2286810063
 C        -6.1379104287        3.6093383977       -1.0450083879
 C        -5.3680402901        4.8818042830       -0.9180752951
 C        -5.9654522838        6.0446683830       -1.7236227469
 O        -7.0226589896        6.0205863321       -2.3048658229
 C        -5.1946935870        7.3646543138       -1.7745149684
 C        -6.1370524158        8.4874635564       -1.1802323035
 O        -5.9625160377        8.8183887768        0.0006239841
 C        -7.2564317651        8.9916924906       -2.0369126428
 C        -8.3555452194        9.8456173140       -1.3869825814
 C        -9.5480538379        8.9989749992       -1.0401219153
 O       -10.2405610948        8.5848208516       -1.9494304951
 C       -10.0933410783        8.8238393357        0.4640613011
 C       -10.8550525449        7.5145678787        0.6238605591
 O       -10.6224253623        6.7497750944        1.5784948536
 C       -12.1469736272        7.2505006692       -0.1814680297
 C       -12.8783218235        5.9671706708        0.2921431382
 C       -13.7316976318        5.4000881853       -0.7510691074
 O       -13.8009966323        5.8579719501       -1.8621990724
 C       -14.5446966498        4.1325019293       -0.3930405456
 C       -13.6754318677        2.8959223312       -0.7862318002
 O       -13.0107135767        2.2696464626        0.0077871653
 C       -13.4834595215        2.6695217918       -2.3094168213
 C       -13.4702447053        1.2021295647       -2.6637286114
 C       -12.0253867412        0.6369640794       -2.4641854892
 O       -11.1427988374        1.2423159271       -1.9295609142
 C       -11.6689129599       -0.8227992742       -2.9832533204
 C       -11.8577030249       -1.7252228213       -1.5920150712
 O       -11.1983875774       -1.3925425957       -0.6381729984
 C       -12.6458691288       -3.0154412805       -1.6475918088
 C       -12.6589312808       -1.1747581584       -4.0880422271
 C       -10.2589249265       -0.7590182258       -3.5000020333
 C       -15.0055330312        4.0860733321        1.0973991989
 C       -15.9064877463        3.9554529859       -1.1781452203
 C        -8.9400188975        8.8566305900        1.4939105129
 C       -11.0835953324       10.0088486168        0.6721916886
 C        -3.8009027042        7.3721284346       -0.9915089384
 C        -4.8460920212        7.6705974900       -3.2798287063
 C        -5.8975705007        0.3842667893        0.7344003628
 C        -7.2965923594        0.9328599786       -1.2806354495
 C       -11.5570273327        1.3646284032        5.3952227074
 C       -10.9733663842       -1.1824926626        5.3564089563
 H       -13.8962451944       -0.5811997933        5.3402044180
 H       -14.3624143814       -1.1175921859        3.7152970296
 H       -14.5462897013        0.5446762308        4.1509150469
 H        -8.7408778522        1.7192184739        4.6219134755
 H        -9.5624017154        2.5718391094        3.3883938767
 H        -7.2873353826        0.6539205143        2.9529994409
 H        -7.2078207165        2.4295587659        2.8101885587
 H        -7.1985717084        3.8513639176       -1.1980088400
 H        -5.7813106867        2.9466387377       -1.9021223677
 H        -4.2961739905        4.6780847677       -1.1867908249
 H        -5.3132214609        5.2944082041        0.0777877670
 H        -7.7638021131        8.1157078097       -2.4839705713
 H        -6.8119620607        9.6036557525       -2.7994161010
 H        -8.5560614034       10.7136973532       -2.0050757745
 H        -7.9088454808       10.2186545089       -0.5141404019
 H       -11.8531736522        7.2484758332       -1.2602419469
 H       -12.7309470437        8.2216211037       -0.1592094020
 H       -13.3222605723        6.2387182650        1.2303346599
 H       -11.9909086687        5.3285735596        0.5091660867
 H       -12.5242490744        3.1804864987       -2.5805116228
 H       -14.2434273365        3.1513404365       -3.0207876367
 H       -13.6737932116        1.0982004621       -3.7190490404
 H       -14.1652281303        0.5774170081       -2.1295993597
 H       -11.9570229981       -3.6899249248       -1.1864950856
 H       -12.8949237186       -3.3599371780       -2.7226828344
 H       -13.5249285069       -2.9843335719       -1.0999052927
 H       -12.8155482521       -0.2317663331       -4.6395358147
 H       -13.6029924645       -1.6110267407       -3.7570268020
 H       -12.2923346885       -1.9600949918       -4.7778780748
 H       -10.2346830818       -0.0224857077       -4.3004265781
 H        -9.9667528635       -1.7242917570       -3.9842795292
 H        -9.6526601632       -0.5868806374       -2.6615546884
 H       -14.2477695998        3.7774506577        1.7426597300
 H       -15.8233323371        3.3160866164        1.1563300502
 H       -15.3454604036        5.0550283643        1.3651231074
 H       -15.7955885893        4.1484490292       -2.2562298668
 H       -16.6157115139        4.5923094777       -0.7494510703
 H       -16.2351613233        2.9089610374       -1.1042072445
 H        -9.2081836350        8.1925709756        2.3199400952
 H        -8.8592123711        9.8622413337        1.8623669650
 H        -8.0126172660        8.4548593844        0.9850317923
 H       -11.7809716670       10.0293769986       -0.1679747980
 H       -10.6248699911       10.9679162520        0.6820096624
 H       -11.6416769274        9.8726396079        1.5994883712
 H        -3.0762223744        6.7252301368       -1.4173035352
 H        -3.8943290662        7.1152544174        0.1361578565
 H        -3.4449073060        8.3988629934       -1.0467013857
 H        -3.9915332526        7.1408796774       -3.5322164431
 H        -4.6481527874        8.7901430292       -3.3056674729
 H        -5.5372467740        7.4350315926       -4.0755334600
 H        -6.3573874599       -0.5314929523        1.0431375645
 H        -5.3654697055        0.7355508627        1.5898791647
 H        -5.2163428106        0.0559341962       -0.0690917735
 H        -6.3933383086        0.6737462147       -1.7492540158
 H        -7.8800660552        1.5541744242       -1.9406809115
 H        -7.8257929520        0.0177564137       -1.1695089293
 H       -12.0120677124        2.2302912378        4.9269223906
 H       -10.6295851853        1.6158730896        5.9469943748
 H       -12.2469026895        1.0198141136        6.0863267323
 H       -10.8311629465       -2.1202548848        4.8613520644
 H       -11.8165802725       -1.2734663323        6.0538565315
 H       -10.1337810832       -0.8574300965        6.0270695413
 Na      -11.1138145362        0.7248434864        0.4635783222
