117

 C       -13.4270646837       -0.3476095430        4.9120340750
 C       -12.7070859875        0.3396211604        3.8022102972
 O       -13.1200917107        0.2989469657        2.6512996756
 C       -11.4386378093        1.2169401894        4.1518686895
 C       -10.1948790648        0.8260301132        3.2946742431
 O       -10.0489926247       -0.3636635258        2.9149288498
 C        -9.0309746517        1.9101440153        3.0928177758
 C        -7.8186289923        1.2011740107        2.6462174741
 C        -7.8611001582        1.2322324314        1.1041389717
 O        -8.9314556140        1.2675166031        0.4843620121
 C        -6.6051265533        1.3008383872        0.3053584420
 C        -6.1914980177        2.9296764763        0.3105587071
 O        -5.6738881979        3.3328222690        1.3199810740
 C        -6.3466390285        3.7973281208       -0.9153528979
 C        -5.6055173810        5.1131798324       -0.9163558794
 C        -5.9868217185        5.9126129179       -2.1650472275
 O        -6.9420306204        5.5489769730       -2.8119089399
 C        -5.2361322289        7.2938910784       -2.5898945086
 C        -6.0626396041        8.4047314741       -1.8799157706
 O        -5.7392816914        8.8677370580       -0.8141271159
 C        -7.3875950102        8.7223052551       -2.5086198019
 C        -8.3610842783        9.4495274833       -1.4960797866
 C        -9.4610878740        8.4936159934       -1.0187037355
 O        -9.4460074185        7.3623773056       -1.4168075146
 C       -10.4743784158        8.9573398444        0.0739967375
 C       -11.2044339392        7.6317801704        0.6103171163
 O       -10.9847796874        7.2031021809        1.7115962760
 C       -12.2979793224        7.0427442229       -0.2473757429
 C       -12.8180928492        5.6999593800        0.3640214409
 C       -13.9802491808        5.1053568647       -0.4166394095
 O       -14.1576410461        5.4635840299       -1.5725890090
 C       -14.8136130130        3.8047608843        0.0980045339
 C       -13.8305666760        2.6757173579       -0.2536631392
 O       -12.9744212250        2.3117357135        0.5717024332
 C       -13.8196423845        2.2935333050       -1.7007133547
 C       -13.4627809714        0.7631770456       -2.1415622457
 C       -11.8966189699        0.6055253938       -2.1776770409
 O       -11.1550597528        1.4887231776       -1.7665959480
 C       -11.3859548327       -0.7324789059       -2.7297608774
 C       -11.1848094702       -1.6380077875       -1.4855411679
 O       -11.5514983559       -1.3098082538       -0.3555272895
 C       -10.4574194274       -2.9216111402       -1.7224266539
 C       -12.1974498287       -1.2553322917       -3.8805731811
 C        -9.9173800738       -0.4386032800       -3.3014558148
 C       -14.9780059128        3.7769568030        1.6646592668
 C       -16.2311210834        3.6859272942       -0.5081874913
 C        -9.6840605472        9.5020865415        1.3042346938
 C       -11.4660987870        9.9045694455       -0.5417256099
 C        -3.7599368958        7.2494169482       -2.0045424145
 C        -5.1646058821        7.3780954347       -4.1502364266
 C        -5.5592010971        0.3983753222        1.0585553020
 C        -6.8406480205        0.8255489818       -1.1179251699
 C       -11.8761239757        2.6410837078        3.9076146748
 C       -11.0473914150        1.0407579898        5.6013960664
 H       -12.6633366093       -1.0704531685        5.4277123531
 H       -14.2510064100       -0.9461143034        4.6542579569
 H       -13.6983537945        0.3327971830        5.6987896599
 H        -8.8165335395        2.4617332001        4.0214883449
 H        -9.2823646519        2.7309087011        2.3917094700
 H        -7.8479271269        0.2213185121        3.1057294346
 H        -6.8827041069        1.6964374401        2.9255979411
 H        -7.3977481818        4.0546384649       -1.1095856260
 H        -6.1227240336        3.2165237992       -1.8627206718
 H        -4.5431124508        4.9375498901       -0.8839289279
 H        -5.8447136323        5.7734795691       -0.1332943960
 H        -7.8443844145        7.7670100939       -2.8522518172
 H        -7.2940135767        9.2196735948       -3.5210234955
 H        -8.7721218895       10.3633765012       -1.9805309577
 H        -7.7288492002        9.7841837880       -0.7083579101
 H       -12.1411608212        6.8199109140       -1.2886770909
 H       -13.0858729961        7.7544248170       -0.2208792916
 H       -13.0334066564        5.7293933222        1.4683521746
 H       -11.9245479613        5.0423401117        0.3909750523
 H       -13.0765610122        2.8168482208       -2.2412792851
 H       -14.7357447617        2.4794210123       -2.2286920123
 H       -13.9495721181        0.4813840780       -3.0815939103
 H       -13.7915356543        0.0735547220       -1.3321622113
 H       -10.0379319065       -3.0232990138       -2.7230301427
 H       -11.1326626424       -3.7301917683       -1.5268310853
 H        -9.6480988952       -2.9820365114       -0.9996618573
 H       -12.3700572417       -0.4317155823       -4.6246495391
 H       -13.2063673933       -1.6152024217       -3.5622579525
 H       -11.6628444533       -2.1062728499       -4.3765280599
 H       -10.0171696046        0.3632127064       -3.9952406372
 H        -9.5546835551       -1.3678723712       -3.7409917493
 H        -9.1800084166       -0.0600962102       -2.6387076374
 H       -14.1837851193        3.2414982887        2.0849206928
 H       -15.9132084615        3.2259273376        1.9930041623
 H       -15.0258898716        4.7549177639        2.1034364370
 H       -16.1670331874        3.9841065987       -1.5512057487
 H       -16.8666790753        4.3934701590       -0.0755833217
 H       -16.5542444192        2.6282280461       -0.4379290191
 H       -10.4835630189        9.6467104765        1.9921028271
 H        -8.9650815451       10.2690109883        1.1817779823
 H        -9.1397643329        8.6072552182        1.7580976794
 H       -11.9200546594        9.4694860536       -1.4112977877
 H       -11.0620206937       10.7980817141       -0.9222561457
 H       -12.1970519741       10.1246788213        0.2076590898
 H        -3.2784691645        6.3431078667       -2.1894581777
 H        -3.7815706249        7.3485755613       -0.8700892753
 H        -3.1292665297        8.0688544229       -2.3144170013
 H        -4.3426464756        6.7962224212       -4.4221156085
 H        -4.9920651316        8.4952559005       -4.3959970136
 H        -6.1003592576        7.0818102591       -4.6011174477
 H        -6.0700343718       -0.4825089563        1.3893102057
 H        -5.1538504381        0.8574667994        1.9358168994
 H        -4.7258850254        0.0612270379        0.4176329715
 H        -5.9657649963        0.7125816373       -1.6468013301
 H        -7.4730091480        1.4707499149       -1.7100092502
 H        -7.3028633800       -0.1485568553       -1.1008311387
 H       -12.0757724732        2.6928338825        2.8436619654
 H       -10.9901508544        3.3053940887        4.0868163021
 H       -12.7151729311        2.9573484627        4.4277592919
 H       -11.0615175831       -0.0556959610        5.9009447610
 H       -11.8139029342        1.5432390635        6.2897501148
 H       -10.0386642548        1.3030656922        5.8630453972
 Na      -11.3788573425        0.7210369286        0.8334030119
