117

 C       -13.9761861195        7.1226889654       -0.5410158085
 C       -12.7848720222        6.7471567732        0.2916176982
 O       -12.2004322080        5.6976523451        0.1411990004
 C       -12.2898772691        7.6808805142        1.4313214109
 C       -12.6365500119        6.9144223089        2.8633591517
 O       -12.2637100680        5.7732891088        3.0726888128
 C       -13.4923259884        7.6533621177        3.8021623270
 C       -14.0380454521        6.6551923409        4.8354924980
 C       -14.4574062956        5.2903594834        4.2587963414
 O       -14.5625509727        5.1242833996        3.0665935545
 C       -14.5255593162        4.0105984177        5.1916539910
 C       -14.2268646488        2.9125054919        4.1615776652
 O       -13.1501925643        2.9320765949        3.5748596565
 C       -15.3954547129        2.0041984049        3.5461653537
 C       -14.7742450546        0.8818828045        2.6377635168
 C       -14.0742152504        1.4030204605        1.4143855174
 O       -14.2379609589        2.5475111375        0.9085294911
 C       -13.1634617436        0.3463796679        0.8169439611
 C       -11.8832439919        0.1357551744        1.7616468706
 O       -12.0344988404       -0.1279222455        2.9014052916
 C       -10.2995718496       -0.1249237368        1.2615600421
 C        -9.4776114605        0.8303378063        2.0117956723
 C        -9.4478375228        2.2752060912        1.6273406474
 O       -10.3811828579        2.7770653833        1.0774777646
 C        -8.0487303592        3.0913885374        2.0734753530
 C        -7.1299123066        2.8366297227        0.8061216118
 O        -7.5317622839        3.1944030178       -0.2614335242
 C        -5.6413448691        2.1631396514        0.8315894406
 C        -4.9239357286        1.8747709366       -0.4283616913
 C        -5.8984911503        1.3687049631       -1.5515369981
 O        -6.3321382478        0.3157839501       -1.3480176968
 C        -6.1274264382        2.0863688028       -2.9315680987
 C        -5.0026263873        1.5973249171       -3.8804699165
 O        -3.9037201518        1.2568730606       -3.4605912299
 C        -5.1220999830        1.8484479709       -5.3764345160
 C        -4.3395382214        3.1880657564       -5.7880006462
 C        -4.2110469588        3.2138316328       -7.3738351103
 O        -3.9983386394        2.2402074816       -8.0335703616
 C        -4.6516454155        4.6000770771       -8.1338841592
 C        -5.9392162598        5.0571901607       -7.5858932061
 O        -6.7747055859        4.2069198044       -7.3137096717
 C        -6.3192780913        6.5019514842       -7.6048123528
 C        -3.4969965645        5.5705011026       -7.7438456773
 C        -4.9163216340        4.3027310812       -9.6722540012
 C        -7.5962951568        1.9665154203       -3.1900595086
 C        -6.0394929816        3.7255471356       -2.9568075395
 C        -8.5192708381        4.6041894922        2.1250884310
 C        -7.5530453693        2.7686689801        3.5080146302
 C       -13.7682447067       -1.0303890054        0.4568911622
 C       -12.7318409487        0.9617208490       -0.5371330309
 C       -13.4086348948        3.9958040543        6.3121506463
 C       -15.8832048916        3.8096821462        5.8587629525
 C       -10.6891723512        7.6814496416        1.5651068657
 C       -12.7693090812        9.2073178724        1.5231558866
 H       -14.5108366834        7.9847071351       -0.0224732294
 H       -14.5428437806        6.1160310314       -0.6706044896
 H       -13.7477489942        7.4031393066       -1.5705626070
 H       -14.4426990655        8.0513459270        3.3008688338
 H       -12.9642961253        8.4577272920        4.2726987418
 H       -14.8696842695        7.1243291390        5.3715178859
 H       -13.3228396873        6.4544773856        5.5750466300
 H       -15.8785848107        2.7632283774        2.8774551628
 H       -16.1524004782        1.5514960609        4.1470914378
 H       -15.4713346488       -0.0142561662        2.5347516784
 H       -14.0584923156        0.4024895655        3.3551402638
 H       -10.2997073667        0.0264423658        0.1641010871
 H       -10.0160595034       -1.1080328670        1.4261585887
 H        -8.3660910633        0.6376988498        2.0612722746
 H        -9.7992777756        0.6295260296        3.0122854603
 H        -5.5458599983        1.3647026984        1.5952698943
 H        -4.9771758371        2.8712607147        1.3443238456
 H        -4.2271957605        1.0805978137       -0.5222973259
 H        -4.3649009934        2.7214744302       -0.8335865408
 H        -6.1502167956        1.9416191739       -5.8470719799
 H        -4.5413862182        1.0146671066       -5.7123460645
 H        -3.4112383333        3.4438786543       -5.2717975229
 H        -4.9394669264        4.0040077504       -5.4267887760
 H        -5.8901160628        6.8916008371       -6.7759586187
 H        -7.3973821602        6.6342543570       -7.4832805025
 H        -5.9006493216        6.9435180112       -8.5711229037
 H        -3.9221304151        6.4628984378       -7.1582506959
 H        -3.1691454733        5.8935027112       -8.7324169913
 H        -2.6946024637        4.9896443130       -7.1995347902
 H        -5.3915896036        3.3640497580       -9.8026597090
 H        -3.9199985671        4.2219967296      -10.2298349295
 H        -5.5514262929        5.0538588822      -10.1220543995
 H        -8.0932276164        2.2566345034       -2.2358215300
 H        -7.8934517769        0.9588995725       -3.1795909360
 H        -8.0592151771        2.6014817763       -4.0104370780
 H        -5.2178984994        4.1333141818       -2.3854302798
 H        -6.9639573906        4.0369808639       -2.4220681296
 H        -6.0355332382        4.1051598584       -4.0344364090
 H        -7.5858008587        5.2159930604        2.2518176970
 H        -9.0456240697        4.6499195808        3.0070172215
 H        -9.2371363536        4.8610833133        1.3890441854
 H        -8.4202557892        2.8169984140        4.1985323856
 H        -6.9230918148        3.5586923490        3.8820418331
 H        -6.9547375282        1.8115859141        3.5477908017
 H       -14.3867920392       -0.8202899552       -0.4271221879
 H       -14.5580809107       -1.2686333525        1.1617244156
 H       -13.0212832483       -1.7998957124        0.3587865500
 H       -12.1081303161        0.2020620861       -1.0608061231
 H       -12.2847260206        1.9323919036       -0.5676833657
 H       -13.5955695720        1.1284316469       -1.2461882787
 H       -13.2369678787        3.1609086537        6.9984326681
 H       -13.5466074965        4.8304064107        7.0308605107
 H       -12.4828150836        4.1678185520        5.7296912435
 H       -15.8879946639        4.6397383525        6.6028075417
 H       -15.9644867443        2.8462460119        6.2825939697
 H       -16.5637656949        3.8310239186        5.1138305412
 H       -10.3133737789        8.6696339106        1.6350853904
 H       -10.3928737065        7.1687008195        0.6811781787
 H       -10.4254726610        7.0796260253        2.4565769488
 H       -12.3277652345        9.6415129557        2.4064582955
 H       -13.8444557880        9.2255410268        1.5488197541
 H       -12.5026019739        9.6608853070        0.5276944829
 Na      -12.3434926813        3.9150296113        1.5236727772
