117

 C       -13.0340123233        0.4172308932        5.4379460327
 C       -12.1504838731        1.0026451245        4.3845670896
 O       -12.3280927505        0.7483562934        3.1889434720
 C       -10.9922069157        2.0319016673        4.6949634509
 C        -9.9951218586        2.0257295390        3.5441065500
 O        -9.7397267583        0.9844740118        2.9873243614
 C        -9.3378703843        3.3768657682        3.0690400021
 C        -7.8606363108        2.8930350703        2.6311582237
 C        -7.8539689745        2.1819917960        1.2579211004
 O        -8.9006211832        2.0000263051        0.6857370354
 C        -6.5368222542        1.7967550254        0.5918708233
 C        -6.0291822516        3.2141682717        0.0456219147
 O        -5.3319281244        3.9401395579        0.6986200058
 C        -6.6080252092        3.5376153591       -1.3196054040
 C        -6.6451341172        5.0298825390       -1.6952309173
 C        -5.9156257851        5.3242183530       -3.0358318895
 O        -5.8331104192        4.4606553738       -3.9016737836
 C        -5.3946590001        6.7706201776       -3.1291907484
 C        -6.5082208284        7.7686627402       -2.5452174278
 O        -6.3340109376        8.1488297548       -1.4188393481
 C        -7.6880489899        8.1832937595       -3.3811886929
 C        -8.8682725365        8.7386974045       -2.5565785225
 C        -9.5766956938        7.9393261661       -1.5194324235
 O        -9.3741439478        6.7794372447       -1.3334010896
 C       -10.7372355190        8.5926715036       -0.6780597069
 C       -11.7190061464        7.4904008681        0.0120607589
 O       -12.1212278430        7.7633466861        1.0979903025
 C       -12.2893629937        6.3516006987       -0.8187637258
 C       -13.1266636196        5.4119595691        0.0971371685
 C       -14.1227401276        4.4925386913       -0.6058398166
 O       -14.3401865645        4.6388526599       -1.7632764337
 C       -14.8771977216        3.4146379133        0.2105676963
 C       -14.0453896785        2.0764566620        0.1034699141
 O       -12.9603126755        2.1154914176        0.5886201052
 C       -14.4796896404        0.8080965759       -0.6768533844
 C       -13.4036773504       -0.1951429395       -0.6148053959
 C       -12.1603929895        0.2906924640       -1.4282245594
 O       -11.8420909707        1.4205887374       -1.5535206679
 C       -11.2351472463       -0.8749001296       -2.0462764087
 C       -10.4724600928       -1.6058363334       -0.9962654479
 O       -10.3491037389       -1.0661085599        0.0886022117
 C        -9.9706933814       -2.9581667183       -1.2359748428
 C       -12.0987877615       -1.8390632247       -2.9544208856
 C       -10.1663604580       -0.1524181166       -2.8720388926
 C       -14.9133795680        3.8521790045        1.7386595100
 C       -16.2641725088        3.3118993736       -0.3916405798
 C       -10.0251807967        9.3330767323        0.4923089792
 C       -11.5880002419        9.6058392700       -1.4977192327
 C        -4.1286846517        6.8349328856       -2.2610604155
 C        -4.9858044966        7.2881056254       -4.5484029731
 C        -5.5096825804        1.3542384003        1.6385796772
 C        -6.7164846900        0.6986817094       -0.5298869421
 C       -11.6673129195        3.3363355213        5.0344032804
 C       -10.3321138271        1.4156406036        5.9237260106
 H       -12.3703142245       -0.2227739220        6.1880365122
 H       -13.6685338138       -0.3360869824        5.0308317360
 H       -13.6657046027        1.0908320256        5.9617802974
 H        -9.3635747245        4.1911467522        3.8391146326
 H        -9.9639844775        3.7778715755        2.2543803206
 H        -7.3987843136        2.2526272015        3.3906040843
 H        -7.2284565445        3.7886306996        2.5333577257
 H        -7.6198551107        3.1650683784       -1.2064332542
 H        -6.2201854131        2.9694279096       -2.2331011476
 H        -6.1790139852        5.6622635412       -0.9239215917
 H        -7.6541016232        5.3532100830       -1.7926035917
 H        -7.9405396501        7.3216672058       -4.0641802767
 H        -7.2884752599        9.0108158453       -3.9746125907
 H        -9.7078654594        9.0868230076       -3.2097419013
 H        -8.5998508145        9.6399525949       -2.0574328534
 H       -11.5306528215        5.6962138190       -1.2365593254
 H       -12.8712469216        6.7480285910       -1.6107413955
 H       -13.6491252183        5.9261472425        0.9012427337
 H       -12.3984590698        5.0087839173        0.7794870542
 H       -14.7137317855        1.0519446651       -1.6792494692
 H       -15.3567402700        0.4307956026       -0.2520699637
 H       -13.7483541851       -1.1955020216       -0.9731694961
 H       -13.0468319489       -0.3244110489        0.4247617537
 H       -10.7220686320       -3.5650445339       -1.7176310660
 H        -9.6914220438       -3.4153257503       -0.3046334105
 H        -9.1015853365       -2.9894051504       -1.9221991776
 H       -12.4790878289       -1.2262335490       -3.7489877691
 H       -12.8337584443       -2.3365141505       -2.3331077278
 H       -11.5237937454       -2.6319881347       -3.4244219217
 H       -10.4785345455        0.2705962019       -3.8466136318
 H        -9.2338347708       -0.6720344575       -3.0566480929
 H        -9.8389523270        0.7705887411       -2.3870845381
 H       -13.8516728162        4.1155830181        2.0331126517
 H       -15.1692314275        3.0530020273        2.3675049303
 H       -15.5495775501        4.7405356794        1.8372641066
 H       -16.1939237318        3.1092560916       -1.4543318127
 H       -16.8769991576        4.1773997925       -0.0964448467
 H       -16.7385728055        2.4773475117        0.0315639903
 H       -10.5964074136        9.3768487799        1.4276107270
 H        -9.9212557425       10.4109801963        0.2331876469
 H        -9.0540319032        8.9434640990        0.7236659267
 H       -12.0189035714        9.0416296756       -2.3540643546
 H       -10.9620766774       10.4431607030       -1.9011846784
 H       -12.2220626983       10.1889054111       -0.8382206203
 H        -3.4991746830        5.9411621700       -2.3378818502
 H        -4.3312833073        6.9925801385       -1.1330933472
 H        -3.5450544045        7.6598483604       -2.5601912420
 H        -5.8099797881        7.5922456629       -5.1903455320
 H        -4.3468071755        6.5503911262       -4.9305254748
 H        -4.5113083685        8.2722946944       -4.4102824326
 H        -5.9008196614        0.5621706161        2.3176581855
 H        -5.0805839269        2.2512116481        2.1580399053
 H        -4.7425085663        0.8884504413        1.0534868988
 H        -5.8325479337        0.7530964743       -1.1042567402
 H        -7.6101634295        0.8436257511       -1.1565765810
 H        -6.7508550840       -0.2402974538       -0.0413368494
 H       -12.0366516754        3.7904479875        4.0991231453
 H       -11.0572537767        4.0037477755        5.5502599102
 H       -12.5457154456        3.1613012312        5.7195760810
 H       -10.0662326877        0.4408766269        5.6045796810
 H       -10.8354705866        1.3929699608        6.8491922096
 H        -9.4420315266        1.9984642136        6.0880626828
 Na      -11.0576658148        0.9980130927        1.0279190860
