117

 C       -14.0602351449        7.2244558838       -0.4680909235
 C       -12.8405418541        6.7051643855        0.3310240851
 O       -12.2142828234        5.7182192941        0.0163617801
 C       -12.3201062167        7.5419527360        1.5007371258
 C       -12.6816846531        6.8779134050        2.8273509284
 O       -12.2685195371        5.7841443905        2.9781336892
 C       -13.5242379564        7.6483068268        3.9579992627
 C       -14.0110845955        6.6690706457        4.9915936989
 C       -14.4834218566        5.3180591644        4.3145364547
 O       -14.6546089940        5.1663801202        3.0801169245
 C       -14.5313787040        4.1295910791        5.1402368196
 C       -14.2404280318        3.0022673995        4.0439081164
 O       -13.1035147065        2.8221877041        3.5931367338
 C       -15.3825898533        2.2223257132        3.5511242065
 C       -14.8135590460        1.0964926536        2.7198690115
 C       -14.0492579452        1.4961513104        1.5254182761
 O       -14.1255922275        2.6337985246        1.0410145024
 C       -13.0251182471        0.4211211131        0.7975826956
 C       -11.8830507867        0.1087151385        1.7238825371
 O       -11.9858365176       -0.1073039393        2.9518600132
 C       -10.4145402293       -0.0097602707        1.1448889201
 C        -9.5086796357        0.8111811837        2.0746702011
 C        -9.4569981211        2.3574052545        1.7488563646
 O       -10.3093589151        2.9452076332        1.0586888427
 C        -8.2074897759        3.1041602756        2.1690005556
 C        -7.2204968675        2.7653141458        0.8509979777
 O        -7.5305898374        3.2137366103       -0.1964213763
 C        -5.7289383065        2.2554388672        1.0699656649
 C        -5.0501928997        1.8159300184       -0.3684493577
 C        -5.9891399872        1.3141185198       -1.6322344292
 O        -6.6165887254        0.2314023820       -1.5771857716
 C        -6.1923586608        2.1974573585       -2.7929898705
 C        -4.9702840126        1.5790806744       -3.8734563915
 O        -4.0037281971        1.1236455468       -3.4440196285
 C        -5.2228830832        1.8299539588       -5.5215903715
 C        -4.3931523693        2.9499271702       -5.9426003557
 C        -4.2201431988        3.1645583155       -7.4303229869
 O        -3.6321828882        2.2851923015       -8.0603792796
 C        -4.5249055064        4.4862666516       -8.0937008172
 C        -6.0906682230        4.8541179879       -7.6661069820
 O        -6.7899496693        3.9905980477       -7.2290105140
 C        -6.4748703202        6.3789358012       -7.6613011617
 C        -3.3800601892        5.5265038998       -7.7436688207
 C        -4.5700542085        4.2088357360       -9.6749802171
 C        -7.6842040118        1.9942986166       -3.2285433938
 C        -5.7779599802        3.7375272684       -2.8398708256
 C        -8.4248541764        4.5959728540        2.0202250067
 C        -7.5664260826        2.8031951299        3.4740995553
 C       -13.6190992897       -1.0119592502        0.7605987671
 C       -12.6620771350        1.1405646076       -0.5991344376
 C       -13.3351703387        4.1718463238        6.2691793632
 C       -15.9379500315        4.0223470159        5.9404397886
 C       -10.6857021525        7.5420239132        1.3513259375
 C       -12.8728045841        9.0802046255        1.4247146500
 H       -14.7891885400        7.6667928453        0.1503392761
 H       -14.3434609244        6.3310477575       -1.0789513078
 H       -13.7534149941        7.9627741345       -1.2593781165
 H       -14.4155101563        8.3017603900        3.6556090960
 H       -12.8415802224        8.2603264751        4.5710672140
 H       -14.8196897334        7.1970022246        5.6447671121
 H       -13.1852095117        6.4884955867        5.6921880255
 H       -16.1854758832        2.7832119253        3.0480055028
 H       -15.8380014287        1.7120298141        4.4716709284
 H       -15.6589665209        0.4572291423        2.3881840157
 H       -14.3084694248        0.4120709745        3.4315322364
 H       -10.4367826846        0.3329487086        0.1221920810
 H       -10.1022848117       -1.0880186817        1.0729562030
 H        -8.4170541079        0.6092720720        1.9090989502
 H        -9.7069852463        0.4896186437        3.0683137329
 H        -5.7604745633        1.4346546962        1.6739047321
 H        -5.0637890698        2.9092227687        1.6244212657
 H        -4.3848664357        0.9612301986       -0.2665356872
 H        -4.5028222874        2.5735585266       -0.9111712607
 H        -6.2728592906        2.1231835770       -5.7071521829
 H        -4.8538221135        0.8933736117       -6.0584183149
 H        -3.3932825554        2.7471380165       -5.6411443260
 H        -4.5801339135        3.8135110837       -5.3618260790
 H        -6.1542460631        6.7610073007       -6.6921207120
 H        -7.5457692109        6.6056501216       -7.7067972978
 H        -5.9482007149        6.7562714398       -8.4879175046
 H        -3.6714868513        6.5156703219       -8.1300328910
 H        -2.5863132011        5.1481417695       -8.3454344073
 H        -3.1843160715        5.5272175496       -6.6269140465
 H        -5.1780673485        3.2968791403       -9.9584634036
 H        -3.5422836377        4.0538358913      -10.0734784125
 H        -5.0666163702        5.0131749532      -10.2173282289
 H        -8.3863634965        2.5522252255       -2.5202435157
 H        -7.9469218144        0.9664437051       -3.0390457987
 H        -7.9345894708        2.2689742670       -4.2549015740
 H        -4.6465840122        3.8672344312       -2.5872858753
 H        -6.3341187855        4.3525173561       -2.0768891639
 H        -6.0065307038        4.0148411189       -3.8553581364
 H        -7.3743840589        4.9484283606        2.0188623660
 H        -9.0477197160        5.0740248707        2.7661184115
 H        -8.9643613466        4.6831760861        1.0567663147
 H        -8.0840500318        3.2798774846        4.3081584711
 H        -6.6197201563        3.2696797525        3.4294186931
 H        -7.3551474131        1.7537704983        3.5865276633
 H       -14.5091808395       -1.0801956885        0.1674271704
 H       -13.9321514092       -1.2096978637        1.8335280793
 H       -12.8455196631       -1.7710571296        0.4712639874
 H       -11.9095515058        0.5918017619       -1.1677970365
 H       -12.5078211479        2.2335149536       -0.5775235944
 H       -13.4778658164        1.0816671099       -1.3170493530
 H       -12.8678125691        3.1637530022        6.5069385224
 H       -13.7147384785        4.4750340806        7.2616651122
 H       -12.4194346722        4.8018377763        5.9858425807
 H       -15.7427467774        4.6921940965        6.6738123243
 H       -16.0420565124        3.0203983040        6.2729011289
 H       -16.7932517090        4.1826602899        5.2850656974
 H       -10.3543573450        8.5755360681        1.5214448345
 H       -10.5594615908        7.3370942564        0.3183083833
 H       -10.2436570927        6.8025340859        1.9730610059
 H       -12.6010240464        9.6523501757        2.3539735544
 H       -13.9515501927        8.9601360039        1.3267173597
 H       -12.5571453382        9.4867780896        0.4863682184
 Na      -12.3429358507        3.7817312309        1.3416167436
