117

 C       -12.9868252951        0.5264960876        5.6632250384
 C       -12.0783177915        0.9447062903        4.5041637913
 O       -12.2023610980        0.5182865616        3.3733352756
 C       -10.9046360143        1.9273456910        4.9011859220
 C        -9.7723575426        1.9824495429        3.7386633320
 O        -9.4078498837        0.9603560124        3.2519657552
 C        -9.3206941697        3.3585924091        3.1757183701
 C        -8.0964320279        3.2572969705        2.3186092475
 C        -8.0210253676        2.3300846137        1.0832052489
 O        -9.0521306177        1.9257239089        0.5781162053
 C        -6.6098303517        1.8612593420        0.6707313654
 C        -5.9965705549        3.1756402350        0.0107995860
 O        -5.0852094840        3.7562587322        0.6312651394
 C        -6.7300681816        3.7994508878       -1.2058588796
 C        -6.5327700334        5.3142532446       -1.4085874018
 C        -6.0328367641        5.5966569796       -2.8720814030
 O        -6.2877561027        4.6762758410       -3.6724211813
 C        -5.3873433107        6.9431275332       -3.2629848000
 C        -6.4764402398        7.9731120886       -2.7531495132
 O        -6.3944727854        8.5101547938       -1.6753003713
 C        -7.7698316843        8.0137520580       -3.6939141259
 C        -8.9533624707        8.6431262748       -2.9579602694
 C        -9.7770256364        7.7363957253       -2.0059730203
 O        -9.6809652744        6.5241173326       -2.0190837914
 C       -10.7566137556        8.4929348166       -0.9655704779
 C       -11.6116836128        7.3534694064       -0.1629910596
 O       -11.5786279297        7.4161624366        1.0253932952
 C       -12.4214124339        6.2645828195       -0.9481450161
 C       -13.1532894812        5.3002688228        0.0238018134
 C       -14.1936768988        4.4921123978       -0.6567101444
 O       -14.6142107596        4.6987267510       -1.7786924864
 C       -15.0163833179        3.3929954894        0.2237017169
 C       -13.9651571946        2.2612405922        0.4246949258
 O       -12.9038346484        2.4612658414        0.9758810678
 C       -14.3265736216        0.9829505320       -0.4452388713
 C       -13.2283597717       -0.1341705006       -0.5738982742
 C       -12.0275829414        0.2391178038       -1.4481217450
 O       -11.7906804078        1.3938404973       -1.7299095398
 C       -11.1627031338       -0.9175804813       -1.9740748529
 C       -10.5554673197       -1.7278563022       -0.7335710119
 O       -10.5859097708       -1.2582065261        0.4048723738
 C        -9.9091340242       -3.0493861996       -0.9288166719
 C       -11.9804532446       -1.8818660713       -2.8399146291
 C        -9.9347339250       -0.3324705968       -2.6286671221
 C       -15.3394726509        4.2080491450        1.5093415775
 C       -16.2934133567        3.0345999706       -0.5431428421
 C        -9.7782667437        9.1157920852        0.0978136444
 C       -11.6480157713        9.4215240531       -1.7353740858
 C        -4.0870179170        7.1871701508       -2.3949234888
 C        -5.0523649071        7.1269279161       -4.7538871096
 C        -5.6489434726        1.5716458185        1.8235789856
 C        -6.7152937930        0.6415144973       -0.3252185921
 C       -11.5983648443        3.2671387088        5.0657351055
 C       -10.1519507861        1.3895653994        6.1425998965
 H       -12.7010412646       -0.5344944132        5.9555328510
 H       -13.9971108094        0.4681759773        5.2645251950
 H       -13.0257805085        1.0644223465        6.5986754479
 H        -9.2576249998        4.0825313774        4.0083902556
 H       -10.1849971161        3.8000241889        2.6972716918
 H        -7.2888876327        2.9855614872        2.9890198660
 H        -7.8843943599        4.2373329571        1.8912808741
 H        -7.8002411771        3.6334487688       -1.1271272491
 H        -6.4106741246        3.2666355239       -2.1729231838
 H        -5.6941522454        5.6041133425       -0.7450816190
 H        -7.4309499342        5.8323464093       -1.1532403543
 H        -7.8971855768        6.9792568640       -4.0819980757
 H        -7.5505668217        8.6097669931       -4.5657849837
 H        -9.7299799355        9.0262867085       -3.6066968597
 H        -8.6347071314        9.4520849796       -2.3765665403
 H       -11.6930235673        5.8092934432       -1.6151163628
 H       -13.2052744783        6.6929769410       -1.5519061246
 H       -13.6507172485        5.8191072514        0.8877691426
 H       -12.3469699797        4.8166232441        0.6093289126
 H       -14.4764782736        1.4085073738       -1.4270296278
 H       -15.2157550025        0.5136223501       -0.1343668860
 H       -13.6573665989       -1.0564539108       -1.0363486719
 H       -12.8083195294       -0.4303694071        0.3975358403
 H       -10.4769727671       -3.8397160289       -0.4168970727
 H        -8.9925778673       -3.0490435719       -0.4838409473
 H        -9.7703193828       -3.3274762353       -2.0075304621
 H       -12.3721699405       -1.4410316189       -3.7401294487
 H       -12.7690381336       -2.2555689029       -2.2082119733
 H       -11.2717461854       -2.6577827813       -3.1455741257
 H       -10.0231793188        0.4227424103       -3.4288863487
 H        -9.3360636297       -1.0266268907       -3.2357648758
 H        -9.2634655597       -0.0360032344       -1.8456225215
 H       -14.3980764114        4.1363961680        2.0986416005
 H       -16.1979963371        3.8420036395        2.0486729026
 H       -15.5939365091        5.2254381231        1.2405926448
 H       -16.1132918453        2.6248546088       -1.5894275899
 H       -16.8239540474        4.0218995043       -0.6873669940
 H       -16.9676126585        2.3970765999       -0.0338085946
 H       -10.1739398961        9.8387352257        0.7736269963
 H        -8.9449988233        9.6211404551       -0.3806527650
 H        -9.4289699584        8.3027693336        0.7439896396
 H       -11.9945895268        8.8350691453       -2.6008901534
 H       -11.0445385057       10.3332670528       -2.0051210457
 H       -12.6068628455        9.6356420523       -1.2507825763
 H        -3.2633721153        6.4940704066       -2.6044898686
 H        -4.3446528958        7.1255209613       -1.2577416936
 H        -3.6742173954        8.1460110650       -2.6220495015
 H        -5.3542084571        6.2386713844       -5.3223468816
 H        -3.9936639455        7.4276881055       -4.9881408467
 H        -5.6900852808        7.9056503698       -5.1948752688
 H        -6.0383805351        0.7347793439        2.3615074109
 H        -5.5222131519        2.4304790092        2.4944797465
 H        -4.6647190354        1.4103680929        1.4583781422
 H        -5.7058795222        0.3199816221       -0.6276229259
 H        -7.3791867086        0.9136970688       -1.2379998289
 H        -7.2602906757       -0.1824255304        0.2353147265
 H       -12.4217015152        3.4351420417        4.3270917322
 H       -11.0058066898        4.1449772016        5.1075489320
 H       -12.1059528505        3.1840538832        6.0839098685
 H        -9.8342206954        0.3893188530        5.9042026566
 H       -10.7970191253        1.3151961578        6.9831778415
 H        -9.3167449840        1.9692343522        6.3295754215
 Na      -10.9692842580        0.9788006382        1.2841255712
