117

 C       -12.7649739728        0.2098826741        5.6823878798
 C       -11.8428246019        0.7585014072        4.6916035829
 O       -11.8793298673        0.3637818056        3.5217131801
 C       -10.7979825564        1.9541091200        5.1150265564
 C        -9.7887294539        2.1053763157        3.9684685626
 O        -8.9201132460        1.3059929638        3.7117113377
 C        -9.8414873155        3.3448865831        3.0243109538
 C        -8.4567986690        3.3370075773        2.2467532888
 C        -8.2277013197        2.2482091829        1.1978358170
 O        -9.1395769553        1.6384175705        0.6647646933
 C        -6.6871945554        2.0110630613        0.7521362889
 C        -6.0303446407        3.3377107008        0.1753018980
 O        -4.9096745095        3.6397135544        0.5978450601
 C        -6.6738282700        4.0635198908       -1.0374669227
 C        -5.8184406394        5.3024125809       -1.3600740746
 C        -5.9868020128        5.7775054984       -2.8492142358
 O        -6.3884241300        4.9648471309       -3.6930173293
 C        -5.5525559226        7.2239894230       -3.4299271041
 C        -6.8875876275        8.2093184281       -3.3231037935
 O        -6.9542760355        9.0282798027       -2.4374517969
 C        -8.0648144933        7.9708764120       -4.3195413244
 C        -9.3567558237        8.4748285843       -3.7558314273
 C        -9.7374880847        7.5382848453       -2.5486940311
 O        -9.5388872142        6.3702994644       -2.5170517020
 C       -10.6670329794        8.2339740596       -1.2990033978
 C       -11.1774089023        7.0575610110       -0.5364072348
 O       -10.5313501891        6.5477352667        0.3375768275
 C       -12.4928915127        6.3922851385       -1.0386721634
 C       -12.8732130461        5.1889936184       -0.1301830041
 C       -14.1846624765        4.5544575450       -0.6755290847
 O       -14.7292992764        4.9998071027       -1.6497777680
 C       -15.0385492741        3.4798511232        0.2393125082
 C       -14.1550921674        2.2395714489        0.2096375091
 O       -13.1229877547        2.2432295562        0.8730785726
 C       -14.3531766498        1.0729151511       -0.8220410872
 C       -13.4534893266       -0.1226679017       -0.6666302242
 C       -11.9345109472        0.1916771014       -1.1361563580
 O       -11.5736307514        1.3446734582       -1.0540600684
 C       -10.9961359936       -1.0145281290       -1.4865159392
 C       -10.5992283865       -1.7326484459       -0.0757553378
 O       -10.6997698450       -1.1418812441        0.9657056243
 C        -9.9708308206       -3.0825206261       -0.1854075781
 C       -11.6934926333       -2.0025460364       -2.4501598554
 C        -9.7711404218       -0.3394215985       -2.1234496444
 C       -15.3712573891        4.1219687063        1.5733573728
 C       -16.4208028511        3.0937009584       -0.4097890294
 C        -9.6922518432        9.0170020569       -0.4332561723
 C       -11.7363291502        9.2264932062       -1.8248045861
 C        -4.4202512675        7.8209238297       -2.5760726545
 C        -5.1072268424        7.0012522927       -4.8789145904
 C        -5.8397470834        1.4570117951        1.9113870280
 C        -6.7416299211        0.9067444548       -0.3369451687
 C       -11.6835207802        3.1991520430        5.4707585655
 C       -10.0637502688        1.5131201291        6.4029969839
 H       -12.3306712338       -0.8498701697        5.9942463482
 H       -13.6698108076        0.0163305681        5.1790989562
 H       -12.9195495721        0.7162250895        6.6220607483
 H        -9.9253695542        4.3138617570        3.5364455019
 H       -10.8100902420        3.2782485457        2.4292344789
 H        -7.6011760655        3.3978742434        2.9289592742
 H        -8.4993819895        4.2651448662        1.6567207074
 H        -7.7511741946        4.3818227676       -0.8708676593
 H        -6.6506308892        3.4000047836       -1.9235202847
 H        -4.7991354920        5.0336423365       -1.2080293267
 H        -6.1054583018        6.1514511527       -0.7220597109
 H        -8.0825053351        6.8957397810       -4.4553370384
 H        -7.8225244229        8.3242870742       -5.3589482858
 H       -10.2195546615        8.2836761193       -4.4269219052
 H        -9.3317015746        9.5053181670       -3.3444725175
 H       -12.5205960907        6.0535569059       -2.0706528565
 H       -13.3060448689        7.1141922957       -1.0513160535
 H       -13.0206795420        5.6344227023        0.8267902884
 H       -12.0781120376        4.4487801165       -0.1302072122
 H       -14.2979334601        1.4738542614       -1.7848566781
 H       -15.3543198965        0.6938537423       -0.6671542906
 H       -13.8537705927       -0.9627357844       -1.2511260763
 H       -13.4697682534       -0.4848369014        0.4051642459
 H       -10.5057469046       -3.8095693925        0.3672394269
 H        -9.0118832977       -2.9953358548        0.3486166637
 H        -9.7372075245       -3.4211901092       -1.2156393616
 H       -12.5290472885       -1.4461637891       -2.8728468304
 H       -12.1857979153       -2.7499300952       -1.8156772449
 H       -11.0274734870       -2.4782496690       -3.0971810231
 H       -10.0593812661        0.2863126229       -2.9948798759
 H        -8.9654305006       -0.9708303775       -2.5006895137
 H        -9.2477029217        0.3930921992       -1.4403406058
 H       -14.4596363521        4.4406386968        2.1269082649
 H       -15.9558102320        3.4454190249        2.1461964505
 H       -15.9809229332        5.0236024361        1.3256949000
 H       -16.3855141627        2.5923158952       -1.3493114769
 H       -17.1103176792        3.9300638654       -0.5870355163
 H       -16.9199202372        2.3871814585        0.3003305687
 H       -10.0853128804        9.3067001343        0.5668680403
 H        -9.4148012905        9.9156248923       -1.0081285234
 H        -8.7634019017        8.5802429709       -0.3395509841
 H       -12.1918465361        8.9131321728       -2.8083697033
 H       -11.1510971831       10.1046411666       -2.1315716316
 H       -12.5204588383        9.4221351977       -1.0450302688
 H        -3.8981139257        6.9891643606       -2.0288311899
 H        -4.8270499931        8.5738659331       -1.8465528718
 H        -3.7108716523        8.3544868373       -3.1727804079
 H        -5.9355867143        6.7062260475       -5.5398413364
 H        -4.5383927151        6.1551976729       -5.0125801281
 H        -4.4808576927        7.8069056857       -5.3453047036
 H        -6.2003964610        0.4873306171        2.3265330712
 H        -5.7516157357        2.1721339744        2.7216897128
 H        -4.8780131600        1.2369677034        1.4984175576
 H        -5.7289612623        0.5100317942       -0.5531190342
 H        -7.2271469548        1.2454722115       -1.3170354527
 H        -7.2670861424        0.0348192408        0.0971657309
 H       -12.5571185296        3.4296952427        4.8068455765
 H       -11.1310074068        4.1535365944        5.5104399472
 H       -12.1287637986        3.0181865998        6.4610804063
 H        -9.3853020023        0.7823959777        6.1031401137
 H       -10.7610092488        1.1292093940        7.0687359805
 H        -9.5475808847        2.3230992054        6.9137779741
 Na      -11.1695918427        1.0388081722        1.4231817972
