117

 C       -14.1337181178        7.2113471005       -0.4573106565
 C       -12.9057674663        6.7261256808        0.2824076338
 O       -12.3582685857        5.6737676610       -0.1263013729
 C       -12.2945895469        7.5502532273        1.4318216322
 C       -12.5881304512        6.8927171007        2.8030433808
 O       -12.1862532141        5.7450619339        3.0481336164
 C       -13.4020992212        7.6526489698        3.8505969790
 C       -14.0742220004        6.7577525302        4.9573299353
 C       -14.4653405834        5.4066400327        4.3271227006
 O       -14.9793622667        5.5247427600        3.2244793589
 C       -14.4359225530        4.1331403507        5.2368043499
 C       -14.1841538207        2.9439451358        4.1801482777
 O       -13.0525677505        2.8496060959        3.8022773809
 C       -15.3900575243        2.2616962764        3.5647040852
 C       -14.9732706965        1.0062589482        2.6882078598
 C       -14.0659857473        1.5171668473        1.5634480948
 O       -14.1360108896        2.6480199806        1.1792211522
 C       -12.9868115590        0.5235593452        0.8323212454
 C       -11.7901571576        0.3011963106        1.7541014005
 O       -12.0115928953       -0.0414968462        2.9042425749
 C       -10.4210397635        0.2419405744        1.1176681689
 C        -9.3611334260        0.8440006668        2.0734256251
 C        -9.3476311810        2.3792046190        1.7918242293
 O       -10.2871446572        2.8752175502        1.1426034452
 C        -8.0353773330        3.1999970882        2.0805846193
 C        -7.1498411558        2.8442494545        0.8670096126
 O        -7.6077211116        3.1888604881       -0.2578365431
 C        -5.9568572856        2.1172800259        1.0803096647
 C        -5.2544291643        1.7516404566       -0.2243940537
 C        -6.1606227268        1.3627821730       -1.4705800389
 O        -6.7027708805        0.2347250713       -1.5329484010
 C        -6.1334798960        2.2468096832       -2.9305646584
 C        -5.2613241938        1.5869748614       -3.9300738369
 O        -4.2189650024        1.0662363831       -3.5059604095
 C        -5.3751834082        1.7467777845       -5.3846285026
 C        -4.2644563425        2.7930037266       -5.9032901339
 C        -4.0213634979        2.9379988182       -7.5034892790
 O        -3.3101470489        2.2346273431       -8.1656465732
 C        -4.5432094735        4.3576132895       -8.1247992114
 C        -5.9818526223        4.7298347549       -7.6743289289
 O        -6.7526289470        3.9094023151       -7.2292213169
 C        -6.5475872589        6.1700668674       -7.7342723274
 C        -3.5160756998        5.4272274122       -7.7787243695
 C        -4.3348384029        4.2386368473       -9.6090982801
 C        -7.5896863693        2.1235722246       -3.4945183121
 C        -5.6031548884        3.6139628746       -2.6241399045
 C        -8.3483535443        4.7782017622        1.9167675619
 C        -7.5159823153        2.7034744460        3.5118652564
 C       -13.6720750854       -0.8848058790        0.8593651906
 C       -12.6633332492        0.9984528321       -0.5626716681
 C       -13.2808647900        4.0796079786        6.2116534758
 C       -15.8243703010        4.1181113953        5.9196294323
 C       -10.7977826731        7.5909534233        1.2143860411
 C       -12.8650619131        9.0246075281        1.3290457849
 H       -14.9988547181        7.1439390852        0.1748139396
 H       -14.1245469440        6.7837597170       -1.3676583811
 H       -13.9848867363        8.2666850155       -0.6768253215
 H       -14.1871124793        8.1179783132        3.3323196917
 H       -12.8329074195        8.4021591835        4.4829413463
 H       -15.0200736186        7.2312287100        5.3280692731
 H       -13.3931354427        6.6453239367        5.9007567119
 H       -15.8929981976        2.9116851931        2.8452754726
 H       -16.1191153268        2.0675700912        4.4176944707
 H       -15.8339743826        0.6009209152        2.2036499811
 H       -14.6133860635        0.1713565845        3.2649082492
 H       -10.4000416110        0.5825930307        0.0959565683
 H       -10.2980083497       -0.9058788735        1.0530966308
 H        -8.3862740044        0.4529555069        1.9757489905
 H        -9.6996829997        0.6299871447        3.1360788149
 H        -6.1577758116        1.2610713532        1.7585553000
 H        -5.2189031309        2.7181101325        1.5954981785
 H        -4.4941365459        0.9423587926        0.0124873034
 H        -4.8092828803        2.6023622206       -0.7111008203
 H        -6.2997628256        2.2708281074       -5.5247807990
 H        -5.2241218100        0.7985248454       -5.9872234703
 H        -3.2977775246        2.5523704619       -5.4449347800
 H        -4.4595709101        3.7822922337       -5.4738370557
 H        -6.6209361905        6.7181889950       -6.7084904099
 H        -7.5712906740        5.9771853771       -7.9282537665
 H        -6.1649662614        6.6608712013       -8.5670315450
 H        -3.2071303747        5.9843997254       -8.6207775782
 H        -2.6115560585        4.9591729437       -7.3418652939
 H        -4.0522456302        6.0321291487       -7.1070671247
 H        -4.9944131287        3.4921106188      -10.1819527300
 H        -3.3368550687        3.8934080025       -9.6450512466
 H        -4.4353899040        5.1863456280      -10.2302321873
 H        -8.2523831346        2.7878064447       -2.9694057114
 H        -8.0375565459        1.0531283763       -3.3432985135
 H        -7.6766545373        2.3059506186       -4.5556516270
 H        -4.4809993456        3.5703220474       -2.5912372984
 H        -5.8362431388        3.7712072970       -1.5735535132
 H        -5.9924658202        4.4097332048       -3.2657895534
 H        -7.4023846762        5.1939053976        2.1089423874
 H        -9.1982829891        5.2209529566        2.5831391508
 H        -8.7352752292        4.8664122238        0.8644664651
 H        -7.9395142496        3.3352996111        4.2495503531
 H        -6.4012328082        2.7372192571        3.5594462378
 H        -7.7655932009        1.7118610886        3.6536757710
 H       -14.7027530506       -0.9661491753        0.4691755608
 H       -13.4992427203       -1.3620558353        1.8577804747
 H       -13.0085594850       -1.4439462036        0.1360679134
 H       -12.0559399683        0.2857108279       -1.1329254732
 H       -12.3073593812        2.0638284393       -0.5541695303
 H       -13.4397280091        1.0533084387       -1.2758254072
 H       -12.9973438321        2.9913571691        6.3015943701
 H       -13.6025129698        4.3119266585        7.2570676262
 H       -12.3619777215        4.6080486341        5.9759714639
 H       -15.7717203693        4.9415159776        6.5975253678
 H       -16.0621673193        3.1072062372        6.2722221827
 H       -16.5115694640        4.2421101028        5.0462606421
 H       -10.2843887699        8.3833201934        1.7692004581
 H       -10.6621438978        7.7802256586        0.1317772353
 H       -10.5255866429        6.5920465103        1.4567263510
 H       -12.5051052378        9.6134530416        2.1795980436
 H       -13.9579490673        8.8729766931        1.3705026163
 H       -12.5926344491        9.4091413867        0.3745785446
 Na      -12.3057873357        3.8044221474        1.2830341275
