117

 C       -11.7420921413       -0.0868455037        5.9169514661
 C       -11.3979405098        0.8540130575        4.8173743467
 O       -11.7085903479        0.5825320809        3.6781511720
 C       -10.6310988996        2.1662112083        5.1787669938
 C        -9.6119852543        2.4665471313        4.0119843159
 O        -8.7636084915        1.6945524677        3.7082086889
 C        -9.8435668413        3.6684668562        3.0995966955
 C        -8.5404018792        3.7058380823        2.2470516299
 C        -8.2117319697        2.5155871087        1.2933893451
 O        -9.0518222101        1.6897701660        0.9921066312
 C        -6.6865978983        2.4553064100        0.8192034670
 C        -6.2681684753        3.9255984721        0.3198032284
 O        -5.7428969231        4.6230880864        1.1276525523
 C        -6.7051095036        4.5705620277       -1.0720616088
 C        -5.9878243399        5.7933441349       -1.5065046666
 C        -6.0061274297        5.8976867488       -2.9965111002
 O        -6.5340527926        4.9963994818       -3.6492568343
 C        -5.4915850449        7.2317321714       -3.6794967806
 C        -6.8314830795        8.1585437729       -3.7555758885
 O        -6.9552581589        9.2177191049       -3.2146279012
 C        -8.0005240488        7.6527377753       -4.6783476930
 C        -9.3624234403        7.9934758491       -4.0281770766
 C        -9.8148768380        7.0227546458       -2.9405552387
 O        -9.5857493997        5.8111951440       -2.9261184369
 C       -10.5289864463        7.7174650588       -1.6668249471
 C       -11.0878760955        6.5403013132       -0.7414462806
 O       -10.4137427783        5.8596037197        0.0245788423
 C       -12.5699631269        6.1025885416       -1.0312608516
 C       -12.9273347963        4.6319734947       -0.5275820844
 C       -14.3947445834        4.4109094740       -0.7017151792
 O       -14.9630670778        4.8280829068       -1.6763782119
 C       -15.1578330909        3.4530183970        0.3444754076
 C       -14.2208078091        2.1786929158        0.3834238135
 O       -13.2525580955        2.1266658741        1.0977351637
 C       -14.4589880092        1.0757529576       -0.7347451151
 C       -13.3694086528       -0.0513044784       -0.5668008511
 C       -11.9687049365        0.1527537334       -1.0476646162
 O       -11.4051921735        1.2404125861       -1.1040041085
 C       -11.1711284874       -1.1477088564       -1.2057654738
 C       -10.8634386996       -1.7817848782        0.2333006675
 O       -11.0929240602       -1.1217624565        1.2406423407
 C       -10.4327200581       -3.1928286035        0.3788478055
 C       -11.7822843965       -2.2959754472       -2.0371153739
 C        -9.7199767136       -0.8397786693       -1.6753650207
 C       -15.3418990529        3.9379495153        1.7922902930
 C       -16.5464846797        3.1102071470       -0.2560885896
 C        -9.3481599412        8.5429943012       -0.9005854687
 C       -11.6948399020        8.6425978336       -1.9941525421
 C        -4.4448936653        7.9010706114       -2.7754806179
 C        -4.9217482978        6.8626209754       -5.0803747239
 C        -5.7406517248        2.0419823004        2.0114543086
 C        -6.7337453580        1.4257265468       -0.3605889744
 C       -11.7252289782        3.2957492857        5.4327712345
 C        -9.7113373810        1.9801036292        6.4442470014
 H       -10.9807083714       -0.7872109767        5.8641777707
 H       -12.5935674845       -0.8145441788        5.7750294648
 H       -11.8078693339        0.3223201604        6.9279219824
 H        -9.8369832126        4.5912187672        3.6690735990
 H       -10.7689965570        3.4717602409        2.5340814492
 H        -7.6794673107        3.9631768619        2.8440374017
 H        -8.5837144908        4.5740025297        1.5954559663
 H        -7.7790751573        4.7498392737       -0.9704112548
 H        -6.6613118257        3.8493287777       -1.8666489922
 H        -4.9754043335        5.7915130692       -1.0858693879
 H        -6.4452464789        6.6525657442       -0.9763486048
 H        -7.7989249013        6.6558406840       -4.9865185882
 H        -7.8266855168        8.2547072972       -5.5972950207
 H       -10.1627446698        8.0349146812       -4.7614011034
 H        -9.2960891190        8.9282618411       -3.5327556158
 H       -12.8805693812        6.0820141635       -2.1042481483
 H       -13.1979258207        6.8610466747       -0.5370132896
 H       -12.5177348620        4.4783816948        0.5032781272
 H       -12.3252239788        3.9798650947       -1.2469633442
 H       -14.3881272623        1.6689030287       -1.6288264622
 H       -15.4902892566        0.6540903600       -0.7600342686
 H       -13.7251351897       -0.9716767032       -1.0188474696
 H       -13.1692944599       -0.3467902407        0.5041818917
 H       -11.2684105300       -3.8187503674        0.0249504638
 H       -10.1477734579       -3.4201068633        1.3533442399
 H        -9.5645750431       -3.4236034198       -0.3027140196
 H       -12.0129763865       -1.9915318258       -3.0716351208
 H       -12.6462728329       -2.7042029327       -1.4759389247
 H       -11.0543725838       -3.0783000033       -2.2360383063
 H        -9.6160875054       -0.4777205415       -2.7202001310
 H        -9.1085334324       -1.7183725798       -1.5637990620
 H        -9.2600121948       -0.0556769320       -1.1166629019
 H       -14.3184946160        4.1817530309        2.1880403025
 H       -15.7002465325        3.1482456809        2.3705294326
 H       -15.9897627635        4.8013847240        1.9024448525
 H       -16.6199559942        2.7877214251       -1.3159385767
 H       -17.2234925069        3.9855388581       -0.1071453926
 H       -17.0516882551        2.4040638213        0.3363168770
 H        -9.5163875110        8.6367097420        0.1905214573
 H        -9.2637512055        9.5858829573       -1.2496954089
 H        -8.3921963678        8.0401969408       -0.9693106597
 H       -12.4819254888        8.0407961113       -2.4600496324
 H       -11.4346004003        9.4820619680       -2.6593408012
 H       -12.1005631177        9.1223426195       -1.1079138596
 H        -3.7994040892        7.1249883162       -2.4408848114
 H        -4.8703318659        8.5135467992       -1.9271764255
 H        -3.8609110577        8.4322930320       -3.4538950301
 H        -5.5605585060        6.7552334430       -5.9376763330
 H        -4.2181159798        6.0333077244       -4.9625082996
 H        -4.2468100058        7.6515503972       -5.4554818882
 H        -5.0454906604        2.8841849844        2.2205329120
 H        -5.0878135367        1.1838025708        1.6825396820
 H        -6.2075830420        1.7453801044        2.9307554281
 H        -5.7716899998        1.1658640901       -0.6415920754
 H        -7.1747415803        1.7707818089       -1.2653699864
 H        -7.2851227582        0.5617583620       -0.1031568335
 H       -12.3083160274        3.6713367471        4.5909087242
 H       -11.2823520373        4.1009322354        5.9037677475
 H       -12.4322297511        2.9030386773        6.1920038562
 H        -8.7855160531        1.4333110500        6.0162458593
 H       -10.1471718857        1.3374407816        7.2894557564
 H        -9.3596872084        2.9745574284        6.7224375588
 Na      -11.1561657935        1.3277011960        1.4694751007
