117

 C       -11.5006879295       -0.1701038154        5.9753868280
 C       -11.2582037082        0.8803443053        4.8922578336
 O       -11.5396540070        0.5465361502        3.7505490214
 C       -10.5583150574        2.2482399870        5.2678656300
 C        -9.6138807509        2.5491541529        4.0186577530
 O        -8.7379595546        1.7367914965        3.8157046019
 C        -9.7802650866        3.7560027689        3.1106861246
 C        -8.6750578897        4.0346171535        2.1070962150
 C        -8.2218694960        2.8103138739        1.3716558914
 O        -8.9654010447        1.8758549207        1.0867211466
 C        -6.6903188255        2.7364809340        0.8071347174
 C        -6.4275754347        4.1385606347        0.3379912774
 O        -6.0402737772        4.9698358548        1.1879337070
 C        -6.7173485647        4.4350318050       -1.1225752641
 C        -6.2138088596        5.8133752485       -1.6097524915
 C        -6.0215269035        5.8134779683       -3.0809931090
 O        -6.2657834751        4.8483776580       -3.8061225617
 C        -5.5297397595        7.1643607803       -3.7198103862
 C        -6.7881516586        8.0115360063       -3.8453068791
 O        -6.7056972539        9.1829664163       -3.4932594728
 C        -8.0276346766        7.4314448739       -4.5632902479
 C        -9.2643694291        8.0202046852       -4.0255864387
 C        -9.8931943812        7.0212491191       -2.9918670590
 O        -9.6296355079        5.8395626274       -3.0714173667
 C       -10.4771745482        7.5805098981       -1.7108659515
 C       -11.0932297276        6.3382314463       -0.8997067732
 O       -10.4380710157        5.8394052520       -0.0258638331
 C       -12.5080265517        5.8820331980       -1.1882333708
 C       -13.0627545173        4.6601601243       -0.3745976903
 C       -14.4759212016        4.2722596310       -0.7302974608
 O       -15.1218564498        4.8034474426       -1.6140452744
 C       -15.1651335320        3.2940276597        0.2950607367
 C       -14.2298165034        2.0981221247        0.3979557938
 O       -13.2291081873        2.2590453404        1.1248805663
 C       -14.3316784004        0.9346422264       -0.6507663947
 C       -13.4595165296       -0.2292671133       -0.4610701799
 C       -12.0273969275        0.0056421170       -0.9196650536
 O       -11.5877816006        1.1206903368       -1.0731618969
 C       -11.1271674535       -1.2106021451       -1.1311665873
 C       -10.9538316292       -1.7966193346        0.2940702770
 O       -11.0304477407       -1.0719082667        1.2696914890
 C       -10.6910551029       -3.3506460171        0.5538015247
 C       -11.7589359212       -2.1923006609       -2.2150920162
 C        -9.7288886232       -0.9248115999       -1.6639493007
 C       -15.1902066402        4.1569591697        1.6090605608
 C       -16.6301786599        2.9348192662       -0.1596349478
 C        -9.3295091897        8.1906320158       -0.7786700253
 C       -11.5789395395        8.6667637799       -2.0428273156
 C        -4.4998113158        7.9026010337       -2.8070236710
 C        -4.9543779643        6.9857115673       -5.1097767086
 C        -5.8285401822        2.2008154017        1.9525443676
 C        -6.6373676940        1.6804553755       -0.3268675251
 C       -11.6552917188        3.2876739282        5.4746240772
 C        -9.6353515032        2.1647036702        6.4845692034
 H       -10.6423860541       -0.9128753786        6.2742792644
 H       -12.1726167916       -0.8921767485        5.6592096833
 H       -11.9357858241        0.2782763481        6.8441245698
 H        -9.8825714168        4.7193834307        3.6417270283
 H       -10.6776891919        3.4834532665        2.5452922846
 H        -7.7492979288        4.4187718034        2.5702222903
 H        -8.9607311301        4.8776769419        1.4570662993
 H        -7.7663402355        4.1316619439       -1.3379715097
 H        -6.1366408787        3.6275397544       -1.6563640928
 H        -5.2712490193        5.9757200837       -1.1025838136
 H        -6.8276781909        6.6251078707       -1.2429084028
 H        -7.9987664059        6.3201125968       -4.4339570831
 H        -7.7876741791        7.6121333684       -5.6126265024
 H        -9.9994894990        8.1955509994       -4.8396209244
 H        -9.1218414426        9.0487779609       -3.5219369632
 H       -12.4511640930        5.6664016198       -2.2623088603
 H       -13.2330398924        6.6749771068       -1.0233615626
 H       -12.9485535244        4.9185852652        0.6564682125
 H       -12.3690961390        3.8581110054       -0.4822914358
 H       -14.1451855201        1.4703075246       -1.5971072334
 H       -15.3444857329        0.6361211828       -0.7042226747
 H       -13.9274277383       -1.0721090722       -1.0503157923
 H       -13.3750539265       -0.5619450235        0.5615359281
 H       -11.6463582426       -3.8326049137        0.5580014665
 H       -10.2058895966       -3.4462785054        1.5489724675
 H       -10.1312212580       -3.9196061390       -0.1903698537
 H       -11.3967433047       -1.8623200436       -3.2006042228
 H       -12.8539936624       -2.1938337399       -2.2883964139
 H       -11.3576734070       -3.2010564780       -2.1526508210
 H        -9.6926750287       -0.7940543035       -2.7444191571
 H        -8.9645185735       -1.6978829722       -1.4751723221
 H        -9.3317592000        0.0303147256       -1.2036830015
 H       -14.3040658550        4.0978126812        2.1795249078
 H       -16.0483021358        3.7231630732        2.2030715971
 H       -15.4681690147        5.2046876623        1.4603485120
 H       -16.6208538306        2.5148143889       -1.1428880789
 H       -17.4036252351        3.6678571291       -0.1676287469
 H       -17.0218543014        2.1171885736        0.5495243511
 H        -9.7860664631        8.5442573839        0.1332739146
 H        -8.8734365848        9.0703707971       -1.2049236898
 H        -8.5959106800        7.4815073409       -0.4285529620
 H       -12.4989560488        8.3130325496       -2.5438832501
 H       -11.1227756722        9.4342254420       -2.7059586985
 H       -11.9806096350        9.0812013814       -1.0633774731
 H        -3.5904001847        7.2844043700       -2.5960663281
 H        -5.0429466607        8.1755286275       -1.9339299178
 H        -4.1554379828        8.7704329812       -3.3950698078
 H        -5.6566703911        6.4524361432       -5.7944012134
 H        -4.0216995838        6.4741166383       -5.1305540660
 H        -4.7269137751        7.9301665653       -5.6419977478
 H        -6.0303659300        2.6953257856        2.8844342088
 H        -4.7925678299        2.3634732921        1.8184379818
 H        -6.0157901601        1.1249950631        2.0799395090
 H        -5.6867216526        1.7094762622       -0.9412367180
 H        -7.4640852608        1.7961504300       -1.0933650804
 H        -6.8263512070        0.6407867948        0.0640881794
 H       -12.2028758555        3.5115538528        4.5576936719
 H       -11.1261585921        4.2909995891        5.6993609157
 H       -12.3481448169        3.0476199142        6.2593592539
 H        -8.9792730780        1.3787594454        6.4969332962
 H       -10.2704223917        2.1208806742        7.2808946364
 H        -9.0449055978        3.0674047631        6.4690113122
 Na      -11.1278144067        1.2942336594        1.5408103072
