117

 C       -11.8810586253       -0.0522201700        5.8944177335
 C       -11.4536631597        0.8123649028        4.7661888100
 O       -11.8401807799        0.6472278395        3.6234803025
 C       -10.6106638295        2.1003897552        5.1325905095
 C        -9.6337896685        2.3906534133        3.9345351412
 O        -8.7735615089        1.5719506674        3.8607385753
 C        -9.7537826163        3.5818596873        3.0102483195
 C        -8.5106750742        3.7576963089        2.2087898128
 C        -8.1799903160        2.5015936213        1.3415693498
 O        -8.9808556009        1.7010248205        0.8555130142
 C        -6.7186149422        2.3925985250        0.8247856708
 C        -6.3084769919        3.8630392921        0.3509610230
 O        -5.5200641574        4.5240812248        1.0439879565
 C        -6.7789089248        4.4786156041       -0.9657944673
 C        -5.8987353501        5.6914361839       -1.4499394864
 C        -6.1233353287        5.9731638232       -2.9111446260
 O        -6.5601799550        5.1068909107       -3.7093125820
 C        -5.5386538096        7.3040831430       -3.6293552525
 C        -6.8423443343        8.2168272548       -3.7769566874
 O        -6.9670310826        9.1595117843       -3.0102028957
 C        -7.9969969445        7.7439041895       -4.7098853576
 C        -9.3540626300        7.9639900879       -4.0582204403
 C        -9.7502725255        7.0269148775       -2.8779247069
 O        -9.6022875044        5.8167358755       -2.9043200597
 C       -10.5294151429        7.6556292965       -1.6830044571
 C       -11.0321261356        6.5694124491       -0.8090968651
 O       -10.3283376359        6.0743543744        0.0242773424
 C       -12.4899923087        6.2346640689       -0.9643314060
 C       -12.8615130937        4.7819045801       -0.5550756611
 C       -14.3359442219        4.4642957394       -0.7135481999
 O       -15.0083179911        4.8328632086       -1.6539266167
 C       -15.0872479204        3.4137826083        0.3539809616
 C       -14.2099440925        2.2225617627        0.2907303628
 O       -13.3597261908        2.1279351229        1.2043619293
 C       -14.3731989014        1.1564581469       -0.7814328644
 C       -13.4435935753       -0.0540827181       -0.5956760206
 C       -11.9647193993        0.1631699705       -1.0365488011
 O       -11.4555385313        1.2662798901       -1.1526020226
 C       -11.1159872721       -1.1991808312       -1.1399085005
 C       -10.8793884349       -1.7843278508        0.2854669465
 O       -11.0699970567       -1.0906656805        1.2716669864
 C       -10.3196591030       -3.1907595607        0.3257956342
 C       -11.7547912066       -2.2716832651       -2.0698276745
 C        -9.6933578605       -0.7510112222       -1.7897291444
 C       -15.2583213057        3.9089874432        1.8141568774
 C       -16.4860353214        3.1722613450       -0.3418193131
 C        -9.5103341395        8.5764049574       -0.7902599363
 C       -11.6869439083        8.6561552917       -1.9621589552
 C        -4.4418658101        7.9926119717       -2.8445440025
 C        -5.0036184583        6.8008716448       -4.9419384903
 C        -5.8313862250        1.9192943843        1.9218580653
 C        -6.6917040624        1.3124473143       -0.3311314331
 C       -11.6422968413        3.1866061325        5.3854199236
 C        -9.7727006330        1.9075791669        6.4814705568
 H       -11.1525525412       -0.9071280499        6.1789429727
 H       -12.7027043213       -0.6429187999        5.6410856582
 H       -12.1454108602        0.5280551472        6.7417873166
 H        -9.8365158130        4.4075550789        3.6944730103
 H       -10.6329133014        3.4390735652        2.3738748731
 H        -7.6324828918        4.0717928120        2.7856511629
 H        -8.6208705074        4.5895591771        1.4902865697
 H        -7.8352568271        4.6669055534       -0.8868204927
 H        -6.7044573514        3.7341076153       -1.7187600506
 H        -4.8454330884        5.4701637999       -1.3217495566
 H        -6.0339947697        6.6171585096       -0.7892751086
 H        -7.7518177937        6.7063816129       -4.9229319184
 H        -7.9729168491        8.2135022771       -5.7058534564
 H       -10.0274195863        7.6478930694       -4.8145541079
 H        -9.5351234476        9.0350049806       -3.7680491982
 H       -12.9215556202        6.3670034458       -1.9724995192
 H       -13.0381861218        6.9924099097       -0.3247787940
 H       -12.5623576469        4.6994414400        0.5082197183
 H       -12.2074796839        4.0692421636       -1.1816304194
 H       -14.3863862887        1.6626017875       -1.8054231393
 H       -15.4498018399        0.7898406975       -0.6508314405
 H       -13.8173804677       -0.8128616172       -1.2844366735
 H       -13.4419167020       -0.5498687058        0.3739083187
 H       -10.8982763762       -4.0200174489       -0.0362763675
 H        -9.9981339111       -3.3541898711        1.3453860155
 H        -9.3346029175       -3.1657842833       -0.2478936362
 H       -12.2890034412       -1.7455146979       -2.8714145897
 H       -12.3640726409       -2.9975750986       -1.4869893980
 H       -11.0471564146       -2.7860860152       -2.6584350998
 H        -9.8806454151       -0.1970866541       -2.6937950579
 H        -9.0575890921       -1.5846952935       -1.9858046499
 H        -9.0783447230       -0.0095812646       -1.2482543794
 H       -14.3878599075        4.3685283611        2.2764962699
 H       -15.5365239467        3.0744374748        2.4309284997
 H       -16.0817468739        4.6518228384        1.7730501473
 H       -16.4106294436        2.9086281579       -1.3521863142
 H       -16.9996488235        4.1151793460       -0.2568051208
 H       -17.2394776489        2.4691137920        0.0880921411
 H        -9.9039071785        8.7509089179        0.2484720361
 H        -9.4367829089        9.5977360516       -1.2264005903
 H        -8.5375201865        8.1906842987       -0.6793521568
 H       -12.4004180820        8.2819652653       -2.6962462643
 H       -11.2490193361        9.6026497238       -2.2268345796
 H       -12.1820448616        8.9828878472       -1.0389862119
 H        -3.7134108706        7.1992930023       -2.6893908402
 H        -4.8176302951        8.3772332823       -1.8763088001
 H        -4.0241810085        8.7226937985       -3.4681288689
 H        -5.6967488811        6.5470275411       -5.7434036567
 H        -4.3393932341        6.0526509619       -4.7497782781
 H        -4.4054139385        7.5709737138       -5.4871679470
 H        -4.8797328747        2.4807364234        2.0941890812
 H        -5.6089573131        0.8495201160        1.8416214514
 H        -6.3909105474        1.9979370963        2.8680727313
 H        -5.7025779837        1.2252996718       -0.6457900721
 H        -7.2421100904        1.5549404511       -1.2238686115
 H        -7.0371307168        0.3823775683       -0.0329351728
 H       -12.2808575327        3.3149164061        4.5066548730
 H       -11.2341850688        4.1709683644        5.6823018680
 H       -12.2799148109        2.9334210797        6.1946461285
 H        -8.9019420660        1.2313096501        6.2555427466
 H       -10.3900712440        1.4277195575        7.2725327335
 H        -9.3787585992        2.9357726008        6.7693036395
 Na      -11.2529236351        1.2239992426        1.4878235616
