117

 C       -11.0183115974       -0.0981398926        6.2228495005
 C       -10.8995607495        0.9124774327        5.1035867547
 O       -11.1469151931        0.4845638394        3.9865694686
 C       -10.4522604082        2.3740881606        5.4529652909
 C        -9.5624471250        2.9452960223        4.3194954182
 O        -8.4207676722        2.4962515417        4.1897337951
 C       -10.1411168690        3.7088399305        3.1510542731
 C        -9.1010022961        4.1422463385        2.1118417794
 C        -8.4741963053        2.9867145313        1.3239134235
 O        -9.1455107605        2.0097669218        0.9217809806
 C        -6.9710347774        3.1613364861        0.9495064714
 C        -6.7426744778        4.4513341765        0.0266871235
 O        -6.6279092916        5.5371134349        0.5944870169
 C        -6.6155595140        4.2601873143       -1.5056072967
 C        -6.1659952426        5.7290041347       -2.0849528584
 C        -5.4626465374        5.8272301271       -3.5069300129
 O        -4.8736181468        4.9404435225       -4.0337476608
 C        -5.4016051539        7.2502244576       -4.1762469661
 C        -6.7447927550        7.9877836186       -4.1018205787
 O        -6.8616362941        9.0240006999       -3.4392370410
 C        -7.9341744656        7.3305894339       -4.8180317471
 C        -9.2384924028        7.8481825212       -4.2529509365
 C        -9.7832179974        6.8673948604       -3.1365572555
 O        -9.6431069175        5.7038135176       -3.3576412113
 C       -10.4432557585        7.3435509838       -1.8761862938
 C       -11.1717919894        6.2253957882       -0.9728528080
 O       -10.7085687310        5.9277523423        0.1288056772
 C       -12.4050629054        5.5467874679       -1.4003718987
 C       -13.1422235837        4.7584873846       -0.3173814740
 C       -14.5031433042        4.2675349400       -0.7163325077
 O       -14.9915667538        4.4428710844       -1.8120237297
 C       -15.2152584561        3.1544876583        0.3894938784
 C       -14.2524672626        1.9371418279        0.4548050096
 O       -13.2721326697        1.9446876618        1.1392110491
 C       -14.5670144361        0.7231659267       -0.3381919489
 C       -13.6491425179       -0.4007614780       -0.0567976907
 C       -12.2348235798       -0.0974772635       -0.6841591145
 O       -11.8385423974        1.0090390228       -0.9569518305
 C       -11.2061818721       -1.2781495514       -0.8232696397
 C       -11.0847129084       -2.0193707847        0.5263696608
 O       -10.8051811490       -1.3513393019        1.5010808081
 C       -11.1449570772       -3.5226264926        0.5788001016
 C       -11.7191294170       -2.1206700412       -2.0449916949
 C        -9.7882506403       -0.7117075261       -1.0637584989
 C       -15.3402315919        3.9752860951        1.7424474770
 C       -16.6108942577        2.7765011045       -0.0966785425
 C        -9.1782188178        7.9828725891       -1.0880360413
 C       -11.4191298164        8.5327198653       -2.0573825426
 C        -4.2146838940        7.9826047776       -3.4655942657
 C        -5.0786527748        7.0709346084       -5.6264738506
 C        -6.0417300960        3.2609877759        2.2288100857
 C        -6.6036348520        1.9194557886        0.0383869612
 C       -11.8177445931        3.1438233470        5.6074416039
 C        -9.6787686282        2.3496939654        6.7574471077
 H        -9.9646994815       -0.2830635508        6.5246906657
 H       -11.4923139419       -1.0204174651        5.9780128870
 H       -11.4663056053        0.2455985840        7.1557449563
 H       -10.6846894380        4.5814798964        3.5287092842
 H       -10.9694236615        3.1157458118        2.7266296414
 H        -8.3167501752        4.7670935770        2.5819213567
 H        -9.4866803700        4.8310122851        1.3183578464
 H        -7.6158819939        4.0398019563       -1.8561215822
 H        -5.9871510624        3.4929249424       -1.9323075574
 H        -5.4821668302        6.2215287682       -1.3447777992
 H        -7.0591417079        6.3709671569       -2.2133911652
 H        -7.8043862094        6.2648821856       -4.6184774491
 H        -7.7635691913        7.5880115685       -5.8786379586
 H       -10.0316694395        7.8340325917       -5.0873673066
 H        -9.2013914542        8.9006149933       -3.9886940090
 H       -12.1813325212        4.9466399821       -2.3035839720
 H       -13.1985878765        6.2394424461       -1.6555392879
 H       -13.2528821348        5.3153623331        0.6296473900
 H       -12.4616511960        3.9552245924        0.0172630243
 H       -14.5411888372        0.9783917481       -1.4232581208
 H       -15.6580254863        0.4577920816       -0.0673667637
 H       -14.0899505181       -1.2402511165       -0.5148198239
 H       -13.4325567202       -0.5234973356        1.0079941798
 H       -11.9806150055       -3.9375128468       -0.0337756423
 H       -11.1212777458       -4.0407228593        1.5887765944
 H       -10.3321723012       -3.7697932045       -0.0075580744
 H       -11.6106901616       -1.5647371331       -2.9542358101
 H       -12.7630955124       -2.2707586842       -2.0782529670
 H       -11.2806074641       -3.1321849527       -2.1131044745
 H        -9.7080255023       -0.3659254051       -2.1182291344
 H        -8.9706584935       -1.4871186771       -1.0162010638
 H        -9.5576960227        0.0320181456       -0.3191415733
 H       -14.3419671449        4.2555531027        2.1364976432
 H       -15.7945201896        3.3748013518        2.5649412790
 H       -15.9038667527        4.8789208990        1.6147839623
 H       -16.7189813653        2.1591307791       -1.0304173179
 H       -17.2633959172        3.6554654240       -0.2467879085
 H       -17.0468898299        2.1832651760        0.6635986734
 H        -9.4778730325        8.3409186935       -0.1367877185
 H        -8.8312470673        8.8008493614       -1.6702019953
 H        -8.2572863438        7.3357109174       -0.9779193920
 H       -12.4178747515        8.1219602976       -2.3875444286
 H       -11.0534028840        9.2463259983       -2.8595660654
 H       -11.6242767634        9.0173748041       -1.0771661308
 H        -3.4318263993        7.2446094884       -3.3702857421
 H        -4.4930101319        8.4751127094       -2.5898629943
 H        -3.9006625511        8.7943422091       -4.2268577587
 H        -5.8697412224        6.8280888484       -6.2880314362
 H        -4.3573979047        6.1959780255       -5.8340886958
 H        -4.5728410157        7.9340765121       -5.9554472388
 H        -5.5960257121        2.3098629075        2.4052324103
 H        -6.6505976580        3.4727084124        3.0898062879
 H        -5.2293766041        3.9846999120        2.1628978695
 H        -5.4688397324        1.8980739507       -0.1106298868
 H        -7.1364768068        1.8508772856       -0.9078828597
 H        -6.6751274119        0.9465270567        0.6287241138
 H       -12.5243396470        2.8699473814        4.8068130326
 H       -11.6655298492        4.2202663564        5.5973649071
 H       -12.2890875573        2.8301296356        6.5937737254
 H        -9.0037974164        1.5798962789        6.6511675532
 H       -10.2416513360        2.2032852125        7.6373159946
 H        -9.1764854969        3.2885625179        6.9496295946
 Na      -11.1587730742        0.9819263024        1.7308828453
