117

 C       -10.5989955980       -0.0562095968        6.2660945570
 C       -10.6224193935        0.9835632412        5.0963126130
 O       -10.9553984160        0.6299656306        3.9732739798
 C       -10.4254991353        2.5261323111        5.4856551399
 C        -9.5275151753        3.1555193124        4.3476340716
 O        -8.3430285103        3.2295661624        4.4544789572
 C       -10.2424361340        3.9613442255        3.1954834241
 C        -9.1605468511        4.2689791458        2.1233288708
 C        -8.5391883902        3.1346102785        1.4026376131
 O        -9.0285943099        2.0118054734        1.3166625732
 C        -7.0900439770        3.3153821415        0.7710563215
 C        -7.1202113002        4.6095240738       -0.2062308272
 O        -7.9999629844        5.3965289625       -0.0636752260
 C        -5.9584789357        4.6569163761       -1.2205237610
 C        -6.1948625880        5.8135112871       -2.2927557800
 C        -5.2953692829        5.7816966417       -3.4789173199
 O        -4.7566721823        4.8161586837       -3.9904577470
 C        -5.4007880846        7.0996199729       -4.3763453576
 C        -6.8115960610        7.6389163912       -4.0949110112
 O        -7.0646218546        8.3935453450       -3.2043010018
 C        -8.0429175821        7.0021325526       -4.8901778688
 C        -9.3622412400        7.5398178636       -4.3221117762
 C        -9.7644924963        6.6958288372       -3.1417163611
 O        -9.6687464259        5.4724333341       -3.2934625931
 C       -10.4640211323        7.3819571199       -1.9082204149
 C       -11.0875774344        6.3994554328       -0.8789989449
 O       -10.8980440832        6.4920931215        0.3275138396
 C       -12.1261709152        5.3567425368       -1.4918462152
 C       -12.8847423135        4.6938615389       -0.3008538421
 C       -14.1672338378        3.8867601055       -0.6915349253
 O       -14.5533138779        3.9039343811       -1.8225962830
 C       -15.0420138977        3.1550540385        0.4230332823
 C       -14.2322749025        1.8833592263        0.7161424457
 O       -13.3480210470        1.9572100523        1.5635887092
 C       -14.6310033474        0.6535480331       -0.0900167450
 C       -13.6335755720       -0.4881819549       -0.1791725143
 C       -12.2378848236       -0.0985874211       -0.7088858879
 O       -11.8723003797        1.0560948679       -0.8817366371
 C       -11.2429789760       -1.3719598604       -0.7326712769
 C       -11.1627731359       -2.0004415532        0.6231941676
 O       -11.2053304330       -1.3403615430        1.6618790932
 C       -10.8252189740       -3.5303151541        0.7976381870
 C       -11.6535528143       -2.3170393247       -1.8214387712
 C        -9.8058329589       -0.8100169328       -0.9681900540
 C       -15.0832632872        4.1292528820        1.5615473519
 C       -16.4805833041        2.8141048086       -0.0761630826
 C        -9.4259495752        8.2593941639       -1.1408748433
 C       -11.5311579584        8.2353591097       -2.5773456301
 C        -4.3734178114        8.2203405575       -4.0456091746
 C        -5.1740093103        6.6711236096       -5.8259543844
 C        -6.0591352273        3.6168080184        1.8873100111
 C        -6.6124683050        2.0591118212        0.0295158743
 C       -11.8395207433        3.0472746926        5.4318868709
 C        -9.7340898564        2.6438609536        6.8404539981
 H        -9.7030260061       -0.0393295130        6.8782891016
 H       -10.8828510468       -1.0676361378        5.8822949109
 H       -11.3099805574        0.1437222374        7.0359311847
 H       -10.8172269937        4.8671201951        3.4575002138
 H       -11.0414804284        3.4419065028        2.6850500496
 H        -8.2844314652        4.8214077733        2.5061516335
 H        -9.6193574216        4.9288219148        1.3415656725
 H        -5.9995158556        3.7674464596       -1.8126547951
 H        -5.0348823226        4.6691241471       -0.6585424403
 H        -6.1191498247        6.8277648285       -1.7726171566
 H        -7.1800078064        5.6900973638       -2.7257285832
 H        -8.0036439696        5.8872199839       -4.7772924767
 H        -7.9513885978        7.2599602024       -5.9441901335
 H       -10.1626370668        7.4269044727       -5.0970647437
 H        -9.3517280022        8.6361052420       -4.1419691297
 H       -11.7507231183        4.5242986964       -2.1073457220
 H       -12.8046063988        5.8592713451       -2.1828588268
 H       -13.3627893663        5.5801221885        0.2226249409
 H       -12.1853877614        4.2184800236        0.3865225774
 H       -14.8203381889        1.1633116408       -1.1017844129
 H       -15.5743314009        0.1914293116        0.2770218283
 H       -14.0977376159       -1.2748018604       -0.7673960015
 H       -13.4134796982       -0.8953037647        0.7820834883
 H       -11.6883378138       -4.1651723369        0.7126116942
 H       -10.5153530821       -3.7296737130        1.7964573965
 H        -9.9737192587       -3.9104408221        0.1117211318
 H       -11.8970429686       -1.7535970770       -2.7000293073
 H       -12.4325704925       -2.9987775252       -1.5089162593
 H       -10.8697938912       -2.9122947715       -2.2279346443
 H        -9.9245418648       -0.0973782934       -1.7761632352
 H        -9.1189360942       -1.6406674345       -1.1569993259
 H        -9.3956607036       -0.1572459178       -0.1411585218
 H       -14.1372708410        4.4385676631        1.9313708217
 H       -15.6199172777        3.6787506130        2.4255403258
 H       -15.6386183929        5.0287963828        1.2395590233
 H       -16.3839156893        2.2351530201       -0.9493713419
 H       -17.1123804880        3.6680598704       -0.1527376733
 H       -16.9882131158        2.1096307281        0.6651248897
 H       -10.0680292556        8.8209798438       -0.4656166621
 H        -8.8657068797        8.9705646973       -1.7624848784
 H        -8.7112851475        7.6952280112       -0.6212070898
 H       -11.7698197470        7.7512656959       -3.5092843422
 H       -11.1318508551        9.2305231804       -2.6932877923
 H       -12.3558149144        8.5263457410       -1.9163014440
 H        -3.3634888510        7.8062606017       -4.2401184879
 H        -4.4206701736        8.3993955265       -2.9396613730
 H        -4.6332086920        9.0915780874       -4.5559985417
 H        -5.9159382069        5.8625391536       -6.0705590492
 H        -4.2297902343        6.2970100598       -5.9809330893
 H        -5.4534663651        7.4446479542       -6.5766728530
 H        -6.2816256098        2.9201354371        2.6866500123
 H        -6.1715493240        4.6096805607        2.2473883941
 H        -5.0139934653        3.5753521229        1.5755002754
 H        -5.5191775294        2.1787769272       -0.1453863160
 H        -7.1404725956        1.9001679573       -1.0037722866
 H        -6.8642695971        1.1270375169        0.5849898102
 H       -12.1707487460        2.7856096358        4.4328557497
 H       -11.9967710888        4.1243567947        5.7562826916
 H       -12.4093932116        2.4723328078        6.1303146674
 H        -8.6737522674        2.4513765876        6.8043062534
 H       -10.1815635755        2.0173758992        7.5577262277
 H        -9.8352900860        3.6520118744        7.1526924624
 Na      -11.1172093106        0.9604402866        1.7437484343
