117

 C        -8.1439173239       -5.0754573100        3.1142981607
 C        -6.7491622303       -4.9196258300        3.8156786657
 O        -5.7764856633       -4.8505438860        3.1336634441
 C        -6.7448195603       -4.8842132022        5.4264745846
 C        -6.7738308299       -3.3755666002        5.8420181444
 O        -5.7692362834       -2.9339729329        6.2833453860
 C        -7.8155673599       -2.4137207304        5.2118116298
 C        -8.0959298518       -1.1359743154        6.0230777173
 C        -8.1801231521       -0.0143814702        4.9100636993
 O        -8.6862527861       -0.1979424282        3.8594789939
 C        -7.6795933772        1.4374479085        5.3532512995
 C        -7.5418496692        2.4658570174        4.0285132643
 O        -6.5353480623        3.0509291640        3.7768136385
 C        -8.8268762827        2.5086921234        3.0567449827
 C        -8.3532096592        2.6818699285        1.5625952118
 C        -9.3653634719        3.1856691568        0.5944765473
 O        -9.4022264487        4.4027778203        0.2719609883
 C       -10.5215770447        2.3582300468        0.0043299920
 C       -11.7507092576        2.8280417109        0.8173700989
 O       -11.6957461071        3.0314552739        2.0107896799
 C       -13.1153150343        2.8111094353       -0.0432458405
 C       -14.1238787510        3.9909840092        0.1253054474
 C       -13.6033091992        5.2945217009       -0.5473899722
 O       -12.6103969692        5.8148330824       -0.0569196829
 C       -14.2168852412        5.9156315788       -1.9274048378
 C       -13.2275290113        5.7433191081       -3.1988548521
 O       -12.1000232882        5.2838003799       -3.0699585209
 C       -13.7578742306        6.0934944151       -4.6479528715
 C       -12.7172770974        6.7092146407       -5.5865032449
 C       -12.6065197531        8.2987421204       -5.3764658769
 O       -13.0927492180        8.8181196507       -4.3605421351
 C       -11.6896839989        9.0966158648       -6.2843961711
 C       -10.2142203914        9.0141822805       -5.4662431442
 O        -9.2846846990        8.3632010780       -5.8485335102
 C       -10.1375618626        9.9356795416       -4.2033759506
 C        -8.8179208751        9.6700760326       -3.4123540247
 C        -8.8879273090        8.3483009281       -2.4600007807
 O        -9.9859311526        7.9831880237       -2.1131772337
 C        -7.6324792698        7.4558770172       -2.0509244120
 C        -7.7324581807        6.1221992047       -2.9453187954
 O        -8.7864954313        5.5953319463       -3.1322516955
 C        -6.4455799846        5.5631337660       -3.3781103739
 C        -6.3249857538        8.2569540788       -2.4345075129
 C        -7.7237475004        7.2955598528       -0.4809207215
 C       -11.5108845641        8.5357217483       -7.7816372638
 C       -12.1486502316       10.6024067239       -6.3855766053
 C       -15.5271301425        5.2488909477       -2.3337551341
 C       -14.5660365317        7.3437540678       -1.5852842728
 C       -10.5981591635        2.4063723432       -1.5847885851
 C       -10.4074789651        0.8399804540        0.3473339121
 C        -8.7443785896        2.0748115555        6.2082580676
 C        -6.2270370956        1.4678352205        5.9676042514
 C        -7.9466911348       -5.6152727482        6.0202671420
 C        -5.4827121122       -5.6098335915        5.8888747021
 H        -8.7873729983       -5.8824896415        3.3582809621
 H        -7.8735053956       -5.0922966126        2.0819057833
 H        -8.7564417203       -4.1564505094        3.2127650417
 H        -8.7785302723       -2.8353375952        4.9235368133
 H        -7.3977481973       -2.0358994581        4.2914780016
 H        -7.2004147092       -0.8721368833        6.5850162181
 H        -8.9342312826       -1.2309436281        6.5731154735
 H        -9.4311162321        3.4362226305        3.3053306922
 H        -9.4639864132        1.6993886317        3.2689320463
 H        -7.9163903895        1.6914437901        1.2573099869
 H        -7.5044901622        3.3978118367        1.5472333314
 H       -13.6191491637        1.9706033000        0.4327416174
 H       -12.8084432606        2.7823538709       -1.0752086713
 H       -14.3991448785        4.2532550087        1.1583042988
 H       -15.0303659575        3.7655218140       -0.3485297838
 H       -14.5617542959        6.8734753217       -4.5243352507
 H       -14.1986032231        5.0895384672       -4.9656232658
 H       -12.9348914129        6.5233388719       -6.6247903126
 H       -11.7055360399        6.2552530069       -5.3266072146
 H       -10.9509369977        9.5007189391       -3.5278969028
 H       -10.2619924845       10.9581687171       -4.3902839147
 H        -8.4691112614       10.4908244738       -2.7412675826
 H        -8.0736498534        9.5609400967       -4.1804097349
 H        -5.6530651237        6.3720678709       -3.6368384001
 H        -6.7722879700        5.0122757780       -4.2604668145
 H        -6.0189991838        4.8545707756       -2.6670530548
 H        -6.6672907117        9.2514405042       -2.1535997723
 H        -5.9844895023        8.2449307779       -3.4808168487
 H        -5.4527873693        7.9849198416       -1.7893240168
 H        -8.0187130087        8.2208082224       -0.0404417080
 H        -6.7674693245        6.9233971896       -0.1541255881
 H        -8.3887605734        6.5018896521       -0.0707422068
 H       -10.5629617934        8.1608868949       -8.0660309589
 H       -11.7383251500        9.2575233006       -8.5045049675
 H       -12.2294108036        7.7202679652       -7.9394735899
 H       -11.4607374644       11.2538637776       -6.7027327579
 H       -12.4253357605       10.7109216303       -5.3317681629
 H       -13.0634697048       10.5969729309       -6.9739169972
 H       -16.2166882902        5.2744830207       -1.5096563983
 H       -15.4282010136        4.2089926273       -2.6173046266
 H       -15.9524360216        5.7115192597       -3.2207774836
 H       -15.1622014792        7.3893518094       -0.7605779252
 H       -15.0464160470        7.8727746499       -2.3408556369
 H       -13.6500262706        7.8386482050       -1.4199683280
 H       -11.1920803524        1.5798338261       -2.0516859385
 H        -9.5841449299        2.2897379677       -1.9934775826
 H       -11.0662473982        3.3512126787       -1.9963061708
 H       -10.2689415764        0.7476781373        1.4361576079
 H        -9.5449710840        0.3282855492       -0.2139008556
 H       -11.2611887202        0.3109248273       -0.0029752750
 H        -9.0184491643        1.4206507085        7.0607161069
 H        -9.6519711551        2.2692604999        5.6036768571
 H        -8.4362834365        2.9925730041        6.6498709501
 H        -6.0820153896        0.7515921801        6.7173536459
 H        -5.9468106781        2.4453473356        6.4081647920
 H        -5.4689252712        1.2138658468        5.2559406782
 H        -8.7410218848       -4.8563935386        6.0344122932
 H        -7.6865276479       -5.8756228992        7.0145637506
 H        -8.1489431517       -6.5880939149        5.5265504161
 H        -4.5608659819       -5.4147050464        5.3543857797
 H        -5.7528547279       -6.6177336589        5.7991647693
 H        -5.3202577769       -5.3466883880        6.8901260077
 Na      -10.5644860654        5.5227514390       -1.4418652603
