117

 C       -14.5066962703        7.2413384740       -0.5105245470
 C       -13.1920345405        6.6833911864        0.0365654809
 O       -12.7975827405        5.5191169006       -0.0946709547
 C       -12.3101955208        7.6403682454        1.1024311383
 C       -12.5559710360        7.0295172831        2.5464014282
 O       -12.1481163292        5.9200493564        2.7794168978
 C       -13.3330415000        7.7928071506        3.6735436927
 C       -13.5128818535        6.8066291337        4.8152635134
 C       -14.6650473900        5.6552061241        4.4425275423
 O       -15.7363628228        6.0053381320        3.9781253765
 C       -14.3817994252        4.2512759320        5.2912735649
 C       -14.1994706891        3.0756178387        4.2650414047
 O       -13.0887573375        2.8597290746        3.8177668705
 C       -15.4664815859        2.3122330968        3.6057152965
 C       -14.9737976238        1.1982010410        2.7420211733
 C       -13.9991652816        1.6162671061        1.6391724967
 O       -13.8581033975        2.7127546533        1.0774339199
 C       -13.2323305682        0.4764582583        0.9608755821
 C       -11.9386076090        0.3872862595        1.7677557924
 O       -12.0250142925        0.4538508593        2.9846781038
 C       -10.4413892423        0.2387704729        1.0139508106
 C        -9.4346585368        0.9482956514        1.9906488319
 C        -9.2359379919        2.5050953000        1.9439599216
 O       -10.2219525050        3.2219959950        1.6407888424
 C        -7.9122050481        3.2422313508        2.1204719864
 C        -7.1364721720        2.7085323308        0.8254143922
 O        -7.4711927384        3.2947612672       -0.2105609929
 C        -6.2054006320        1.6058548395        0.8128458416
 C        -5.4119805074        1.3449695886       -0.4737081502
 C        -6.3750311183        1.4918964295       -1.6220889156
 O        -7.3616155360        0.6910950116       -1.6770608248
 C        -6.1549110624        2.2669017970       -2.8932273254
 C        -5.2474682227        1.3908625071       -3.9420237054
 O        -4.5510691763        0.5398592151       -3.4281928415
 C        -5.1301473527        1.7927843956       -5.4143711175
 C        -3.8027496607        2.4399158099       -5.7775599096
 C        -3.6316907388        2.7479885805       -7.3614718921
 O        -2.9654002046        2.0752983685       -8.1363840621
 C        -4.3560326063        4.0338718825       -7.9098074654
 C        -5.8932846468        4.1298153737       -7.8032169905
 O        -6.6039670118        3.2236589807       -7.4866154296
 C        -6.5093425269        5.4593452129       -8.3982869946
 C        -3.5149717512        5.2192471260       -7.3325724424
 C        -4.1130862727        4.0249082131       -9.4166599542
 C        -7.6329435178        2.5770059158       -3.3374429563
 C        -5.3662357779        3.5547956485       -2.6586659150
 C        -8.2462066828        4.8116823648        1.9936120811
 C        -6.9740515094        3.0756222702        3.4007769308
 C       -13.9979348823       -0.8546766687        0.8996501954
 C       -12.8857148523        0.9033258831       -0.4424994616
 C       -13.1677988263        4.3925735326        6.2181231489
 C       -15.7029142549        3.9293920068        6.0472778908
 C       -10.8766518533        7.3263922115        0.6845522245
 C       -12.7800052274        9.2242209461        1.0050441525
 H       -15.2581834947        6.4106372988       -0.5149957569
 H       -14.1783886332        7.6646802419       -1.4725809615
 H       -14.9019603893        8.1918148587        0.0552980785
 H       -14.3324365563        8.1240707545        3.3168357107
 H       -12.8187515707        8.6911547817        4.0876330269
 H       -13.9130841083        7.1207505640        5.7821374362
 H       -12.4655908000        6.3842232495        4.9897979205
 H       -16.1676040399        2.9423544049        3.0815353427
 H       -16.0913555411        1.9010187815        4.4362356753
 H       -15.7763994049        0.5933839858        2.2394004301
 H       -14.5634981715        0.4722363637        3.5022225898
 H       -10.3619809860        0.4469763529       -0.0040320919
 H       -10.0612152581       -0.8010410611        1.1810583082
 H        -8.4748452956        0.4029276651        1.8417911973
 H        -9.7081486079        0.8665426978        3.0453966328
 H        -6.8064190845        0.7981862174        1.0900299941
 H        -5.3580930247        1.6555607527        1.5244615232
 H        -4.9536113092        0.3466714619       -0.4921787196
 H        -4.8016455747        2.2052234545       -0.7134113883
 H        -5.7960106097        2.6207063425       -5.5412604046
 H        -5.2577399623        0.8218131986       -5.9648116824
 H        -3.0896245929        1.8123519093       -5.2619672197
 H        -3.7420711577        3.4365769087       -5.3082240577
 H        -6.5548142803        6.2404436569       -7.5644954261
 H        -7.5375431853        5.3526952734       -8.6836820455
 H        -5.9461891914        5.6960811978       -9.2094350301
 H        -3.2595334699        4.8884517355       -6.2985546618
 H        -4.1633690493        6.1662704942       -7.1789023719
 H        -2.6005654137        5.5010551785       -7.9309689032
 H        -4.9877455751        3.5871143040       -9.9582659769
 H        -3.2452236232        3.5284532886       -9.7061492458
 H        -4.1149171691        5.0375520866       -9.7976166075
 H        -8.2657433046        2.4978315908       -2.4318686566
 H        -7.7749563134        1.8651534746       -4.1998585898
 H        -7.8470389745        3.4995206369       -3.8060610357
 H        -4.4483196116        3.2845519527       -2.0618873003
 H        -5.8977055672        4.3060495139       -2.0501927605
 H        -5.2780979166        3.9167265903       -3.6178940993
 H        -7.4707367111        5.4151375867        2.3073572505
 H        -9.1035416392        4.9913616740        2.6509488092
 H        -8.6559945871        4.9110253116        1.0105615363
 H        -7.6695163682        3.0380022386        4.2734719644
 H        -6.2628730873        3.9363371201        3.3641083227
 H        -6.3986912697        2.1563137431        3.3994702883
 H       -14.6802201806       -0.5769821391        0.1638529923
 H       -14.3147904709       -1.2870972553        1.8699233019
 H       -13.5095203328       -1.6981829953        0.4181226943
 H       -12.5887327877        0.1466065487       -1.0991557317
 H       -12.4267472509        1.9045433565       -0.5298200042
 H       -13.7823294992        1.0132985827       -0.9921738790
 H       -13.2004388152        3.5646404957        6.9824258634
 H       -13.1567651798        5.4013524099        6.5981572842
 H       -12.2144556665        4.2907959243        5.6825711810
 H       -15.8343695478        4.6351835178        6.7448386973
 H       -15.6509901885        2.9113608042        6.3587558602
 H       -16.4743193566        4.0465843576        5.2445440053
 H       -10.4742422092        6.7439507152        1.5398284095
 H       -10.3361086505        8.2794162603        0.7632493021
 H       -10.7376987882        6.8281239932       -0.2323974081
 H       -12.3165042753        9.8486386085        1.8061237574
 H       -13.8597413506        9.2078926311        1.1324721477
 H       -12.4136385242        9.5753356421        0.0991279833
 Na      -12.1638090832        4.1789532193        1.6637686144
