117

 C        -9.2883673687        0.6227282733        6.2110490969
 C       -10.3051606886        1.3180256593        5.3096334822
 O       -10.8248586865        0.7531342078        4.3511464692
 C       -10.4975955775        2.8652107226        5.4214206328
 C        -9.6674504006        3.4800643714        4.2496743109
 O        -8.4438827336        3.5378809292        4.4693768687
 C       -10.2837365653        4.1149380599        3.0576907485
 C        -9.2810329281        4.4884610387        1.9171859065
 C        -8.6151865505        3.2200713746        1.4261565700
 O        -9.2720052390        2.2199976970        1.3712004107
 C        -7.1542779492        3.2189637502        0.9454514289
 C        -7.1338555227        4.1239532356       -0.4310904846
 O        -7.7365835201        3.7006356142       -1.4145704729
 C        -6.2742407401        5.3799416174       -0.5447443655
 C        -6.6765980029        6.1910203965       -1.8816351480
 C        -5.9003080299        5.6728033623       -3.1544365017
 O        -5.1837059906        4.7244026336       -3.1308233194
 C        -5.8735870491        6.6356926435       -4.5669845158
 C        -7.1837383470        7.5326607480       -4.5953945733
 O        -7.3425767670        8.5269825776       -3.8965720112
 C        -8.3480823181        6.9011702548       -5.2744406717
 C        -9.7422257292        7.3277013540       -4.6859735830
 C        -9.9113604164        6.7020901743       -3.2785059934
 O        -9.4240007555        5.6296414126       -3.0159927264
 C       -10.8004511852        7.5634188011       -2.2010032392
 C       -11.0254191524        6.5571068949       -1.0106407916
 O       -10.6866368377        6.7065993283        0.1531328406
 C       -11.8122305524        5.2597776122       -1.3766041996
 C       -12.5452833054        4.7139012190       -0.1544593935
 C       -13.6523710495        3.7549207699       -0.6282048847
 O       -13.8969899203        3.5022343766       -1.7817326781
 C       -14.6444009135        3.1632975370        0.4749473431
 C       -14.0407178823        1.7712403845        0.7585142923
 O       -13.4418438423        1.5187167937        1.7778537427
 C       -14.4687359135        0.7289500226       -0.2439648202
 C       -13.5967961102       -0.5060257031       -0.3159238027
 C       -12.0853547344       -0.2298858851       -0.4329768706
 O       -11.7297211386        0.9144064372       -0.4617366628
 C       -11.1471884970       -1.4492561802       -0.6771808880
 C       -10.7264790526       -1.9080867721        0.8248711880
 O       -10.7083447142       -1.1208117482        1.7455000436
 C       -10.4258746783       -3.4166101956        1.0528971695
 C       -11.7591233751       -2.6003976139       -1.4729205150
 C        -9.8383114798       -0.9206835345       -1.3240707763
 C       -14.8022966242        4.0420237994        1.6444456257
 C       -16.0575208490        2.9980307699       -0.1352267491
 C        -9.9586389034        8.8304517745       -1.8237292792
 C       -12.0579594073        8.0162292976       -2.9730722145
 C        -4.7057346657        7.5991950476       -4.3765846139
 C        -5.5392559202        5.7360787783       -5.7634912153
 C        -6.1626608294        3.7360539695        2.0209893299
 C        -6.7860933606        1.7436469478        0.7067896769
 C       -12.0247840230        3.2463216025        5.3402347631
 C        -9.8806189078        3.4039405690        6.7771437314
 H        -8.3346640560        0.8110567821        5.7537578758
 H        -9.3490231328       -0.4526757739        6.2140154772
 H        -9.1940969980        0.9412507178        7.2698588382
 H       -10.7212284561        5.0830689991        3.3595359637
 H       -11.1068756342        3.5837015612        2.5912470056
 H        -8.4688096967        5.0216797966        2.4157855050
 H        -9.8264329514        5.0732687787        1.1507395520
 H        -5.1779893266        5.1455183605       -0.4702034068
 H        -6.5680108404        5.9242014335        0.3894547843
 H        -6.3483351873        7.2463142416       -1.7136710519
 H        -7.7286644328        6.2230460697       -2.0367519908
 H        -8.2094204115        5.8031162160       -5.2111206873
 H        -8.3095439233        7.0953551367       -6.3348221837
 H       -10.6062874843        7.0786234299       -5.3013092719
 H        -9.6366963421        8.4443336197       -4.4871978005
 H       -11.0576426146        4.5757876812       -1.7979428596
 H       -12.4836115082        5.3867739824       -2.2196853799
 H       -12.9923619743        5.5962585178        0.3227625563
 H       -11.9355801286        4.2756540549        0.5845263619
 H       -14.6103874155        1.2194003591       -1.2120640198
 H       -15.4350112962        0.4597737139        0.0875537579
 H       -13.9692400058       -1.2176739219       -1.0949875213
 H       -13.7740022198       -1.1461660599        0.5475784438
 H       -11.2992449249       -4.0161020208        0.8857117788
 H       -10.0070584596       -3.6420875949        2.0333328331
 H        -9.6522164631       -3.7842624701        0.3719441104
 H       -11.8936305130       -2.3832913050       -2.5428561225
 H       -12.8232954898       -2.7738111147       -1.1765084897
 H       -11.2004410593       -3.4511578950       -1.2152905997
 H       -10.0588015005       -0.6834830810       -2.3667182823
 H        -9.0774976894       -1.6577170915       -1.3272427018
 H        -9.5993443307       -0.0563924973       -0.6998190888
 H       -13.8978655268        4.0651519544        2.2697923861
 H       -15.5280682926        3.5601216572        2.2336502567
 H       -15.2041428008        5.0678442069        1.4463268869
 H       -16.0331666549        2.7257897016       -1.1728085572
 H       -16.6218846370        3.9447498101       -0.1134639587
 H       -16.4578539773        2.2535042320        0.5441248427
 H       -10.4871394123        9.5880220732       -1.1998698642
 H        -9.7165174726        9.2884662800       -2.7882606823
 H        -9.1457750557        8.4695820682       -1.2597139525
 H       -12.3984504365        7.3197849211       -3.7308850681
 H       -11.7730527986        8.8717574738       -3.5148667011
 H       -12.9262882647        8.0755804553       -2.3334947473
 H        -3.8000512789        7.0159037338       -4.2622297741
 H        -4.8560739315        8.2519017245       -3.4604401458
 H        -4.5152533122        8.2497246067       -5.2160773942
 H        -6.1378906314        4.8528302021       -5.6709076270
 H        -4.4910428480        5.3766007755       -5.6580443320
 H        -5.6305733855        6.3171300680       -6.6820131618
 H        -6.5658740881        3.5105573888        3.0264052613
 H        -6.2217712801        4.8374811474        1.9868781681
 H        -5.2007553600        3.3027702994        1.9721110769
 H        -5.7682053894        1.6121803979        0.4910072923
 H        -7.4234104076        1.3683342474       -0.0376051483
 H        -6.9372091720        1.2866896927        1.6433798536
 H       -12.5460706364        2.5085688543        4.6872703447
 H       -12.1376064609        4.2250372056        4.9140150569
 H       -12.4050496287        3.1836368252        6.3349932814
 H        -8.8868887759        3.0108556406        7.0944370872
 H       -10.6425738527        3.1761513555        7.6155312084
 H        -9.8650481453        4.5000840615        6.8290891180
 Na      -11.2279706490        1.2613705326        2.0474602121
