117

 C        -8.8302705607        1.4358183089        5.9734045450
 C        -9.9803616795        1.8318232778        5.1095744393
 O       -10.3930941865        1.0720452072        4.2731601378
 C       -10.5346000710        3.2905737401        5.2105818914
 C        -9.6186724197        4.0222750942        4.1559697963
 O        -8.4245260862        4.0588741199        4.4103441890
 C       -10.2198659487        4.3358288140        2.8118350595
 C        -9.0976178707        4.5050878491        1.8037692718
 C        -8.4543482386        3.1644148915        1.6253953891
 O        -9.0774694046        2.1301669286        1.6291999202
 C        -6.9852651209        3.1484032218        1.1613241289
 C        -7.1179075077        3.8641184396       -0.2360370755
 O        -7.7129293878        3.2033562143       -1.0959346402
 C        -6.7326786817        5.3547924592       -0.5339350983
 C        -7.1708678696        5.8502701838       -1.8072569499
 C        -6.1227788754        5.4437360748       -2.9012290743
 O        -5.2614226140        4.6033437618       -2.7158809439
 C        -6.1351743688        6.2001157369       -4.2691731479
 C        -7.3988315807        7.0829405630       -4.4260782032
 O        -7.4524315174        8.1762827328       -3.8920673372
 C        -8.3929289693        6.7602925895       -5.4915837933
 C        -9.7903363248        7.3572419965       -5.1883890690
 C       -10.3169967916        6.6852358430       -3.8897642640
 O       -10.3124060055        5.4913541298       -3.8510066858
 C       -11.0642295475        7.5798434695       -2.6727036126
 C       -11.2382358836        6.6319547798       -1.3400234532
 O       -10.8160902900        6.9196752050       -0.2376274470
 C       -12.1470495856        5.3869431714       -1.5619430431
 C       -12.8898614389        5.0495958687       -0.3239043451
 C       -13.7245774276        3.8166938366       -0.5680636122
 O       -13.6797116093        3.2675452543       -1.6538681641
 C       -14.5367825076        3.1788756728        0.6442701834
 C       -13.9673279024        1.6875977972        0.9493905951
 O       -13.5233153454        1.4092537190        2.0278561512
 C       -14.3423808022        0.6687055026       -0.1394757000
 C       -13.4655445440       -0.5741854452       -0.3370277471
 C       -11.9656292256       -0.3335980241       -0.2626806148
 O       -11.6361835996        0.8034050298       -0.0318980627
 C       -11.0085944546       -1.4890434632       -0.4119904930
 C       -10.3509663161       -1.9090029896        1.0574825974
 O       -10.4911823080       -1.1490844497        1.9817173267
 C        -9.6043228499       -3.2704440366        1.1178083357
 C       -11.6514697214       -2.7201932845       -1.1097579590
 C        -9.6385831362       -0.9450393777       -1.2437218841
 C       -14.3999045782        4.0132074643        1.9218929052
 C       -16.0924485747        3.0488353746        0.2529989292
 C       -10.1765941500        8.8254158888       -2.3205767781
 C       -12.3849644544        8.0966816152       -3.2323906630
 C        -4.8154949220        7.1398902964       -4.3312709419
 C        -5.9174352563        5.2158448803       -5.4173799311
 C        -6.0320580276        3.9101273545        2.1206459136
 C        -6.4216802478        1.7489704279        0.8045298540
 C       -12.0138088176        3.3227647449        4.8149166268
 C       -10.2971379735        3.9493340119        6.6220055149
 H        -7.9298310937        2.0360218135        5.8297236336
 H        -8.4444618112        0.5378444903        5.7161476204
 H        -9.1224558679        1.4527309333        7.0854994349
 H       -10.8667801134        5.2336167745        2.9413563256
 H       -10.8131055900        3.5109567786        2.4268628080
 H        -8.2762178517        5.0914730785        2.2451933327
 H        -9.3719891576        4.9725864336        0.8434606376
 H        -5.6872915988        5.5173672713       -0.3976737122
 H        -7.2209726196        5.9120460217        0.2725130406
 H        -7.3024635138        6.9858330949       -1.7568053801
 H        -8.1192317658        5.5220909935       -2.1166377094
 H        -8.4577369887        5.6805664623       -5.7142876680
 H        -8.0496446259        7.1799140725       -6.4607205478
 H       -10.5346477349        7.2130383664       -5.9641513909
 H        -9.5516898183        8.4147965208       -5.0485239775
 H       -11.3953054894        4.6720822400       -1.8752359833
 H       -12.9364484025        5.4503341158       -2.3050014127
 H       -13.6197750232        5.8014593229        0.0762693783
 H       -12.3030973877        4.8339769880        0.5694237769
 H       -14.3883783366        1.2705578561       -1.1111570914
 H       -15.3995951375        0.4244200887        0.1215693423
 H       -13.7303321041       -0.9837631931       -1.3243227483
 H       -13.7310382678       -1.2765616645        0.4278629472
 H       -10.2306724100       -4.1353457388        0.9625518424
 H        -9.1840325951       -3.3519199432        2.1612614564
 H        -8.8337130777       -3.3436007685        0.3474750517
 H       -11.8789353056       -2.4131246774       -2.1330617667
 H       -12.5582507752       -2.9773482491       -0.5262380038
 H       -10.9983119704       -3.5460855354       -1.2179364678
 H        -9.9622844039       -0.3320632680       -2.0788778760
 H        -9.0234841283       -1.7747393411       -1.5255461703
 H        -9.1756444642       -0.3440306573       -0.4543813108
 H       -13.3701068367        4.0753862145        2.2544797969
 H       -14.9291256315        3.4627976452        2.6622609548
 H       -14.7285699001        5.0793923396        1.7937065134
 H       -16.0714191491        2.6242420146       -0.7086329996
 H       -16.6915277292        3.9197760185        0.4649731961
 H       -16.5289560593        2.2823505851        0.9156769724
 H       -10.6292295007        9.3929662244       -1.4894727427
 H       -10.0266185991        9.4782403471       -3.1943535280
 H        -9.2331964042        8.4020492222       -2.1744173683
 H       -12.9831173731        7.3619676110       -3.7302640489
 H       -12.2942240649        8.9391387643       -3.8585093058
 H       -12.9371273054        8.5669714693       -2.4162893088
 H        -3.9141057510        6.5344775792       -4.3817930608
 H        -4.5962447742        7.8195680939       -3.4557373177
 H        -4.9018024150        7.8147365643       -5.1780358003
 H        -6.8023541492        4.6135886838       -5.5576862369
 H        -5.0332482147        4.6117330703       -5.0641969421
 H        -5.7212228252        5.7466867198       -6.3462910276
 H        -6.1504072774        3.5768798324        3.1665117702
 H        -6.2918904680        4.9724659124        2.0809098542
 H        -4.9991520971        3.9076949966        1.8296721648
 H        -5.3372575331        1.8923433004        0.5485459198
 H        -6.9361704408        1.3224164366       -0.0628903408
 H        -6.5714861348        1.0657642118        1.6682351531
 H       -12.1029078811        2.4316536390        4.1832671542
 H       -12.3500824234        4.2141070047        4.2776069071
 H       -12.6657897050        3.1701967515        5.6351069852
 H        -9.3786350446        3.7946650576        7.0425646511
 H       -11.0193734785        3.4948618799        7.2684139923
 H       -10.4761222411        4.9828448226        6.5700389697
 Na      -11.0144373272        1.1728265089        2.1034522315
