117

 C       -14.7279285882        7.3833550818       -0.6211348435
 C       -13.4423001140        6.6917575428        0.0661877943
 O       -13.2119101933        5.5236081986        0.0106551770
 C       -12.4568225852        7.7011104457        0.8768456466
 C       -12.5790814484        7.1271115470        2.4038778085
 O       -11.8988366436        6.1414857238        2.6244787377
 C       -13.6154595742        7.7340024922        3.4672741895
 C       -13.4897879969        6.9866500192        4.8477717594
 C       -14.6297421265        5.8532442162        4.8598899480
 O       -15.7072450985        6.0565295937        4.3264460204
 C       -14.5116158506        4.4259269068        5.4396939018
 C       -14.2172789328        3.4838120950        4.0977087582
 O       -13.0103071971        3.4985333229        3.8205103714
 C       -15.3756127446        2.6670477525        3.5507287545
 C       -14.9692725014        1.3602679995        2.7946389514
 C       -14.1780382462        1.6537444571        1.5485098935
 O       -14.0325106687        2.8146144391        1.1955986432
 C       -13.2193121061        0.5074724529        0.8639692151
 C       -11.8847440206        0.5652290089        1.8823694518
 O       -12.0879927287        0.3500736762        3.0399148050
 C       -10.4924835300        0.6341444398        1.2472304664
 C        -9.3910146404        0.9511302616        2.2940225307
 C        -9.2368537177        2.4682445972        2.1612055932
 O       -10.2410897207        3.0936005547        1.9524807269
 C        -7.8060215587        3.2317383607        2.0771004772
 C        -7.0459290757        2.7350809583        0.7214764609
 O        -7.0021266051        3.4022863339       -0.2733294494
 C        -6.0576743606        1.4883880982        0.7969515454
 C        -5.5202877097        1.1975122489       -0.6507631607
 C        -6.6473113451        1.4059365748       -1.8209488651
 O        -7.6972514598        0.8975386924       -1.7043203694
 C        -6.1808526878        2.2857519484       -3.0185715522
 C        -5.2908680223        1.3363765653       -3.8367866435
 O        -4.8207965916        0.3691459194       -3.3223272106
 C        -5.1539505227        1.7118509381       -5.3512688209
 C        -3.6276211446        2.2677958413       -5.6325598228
 C        -3.5863417109        2.5086354164       -7.1826761668
 O        -2.9246868625        1.7944042121       -7.8518415351
 C        -4.2215232188        3.8512299378       -7.9456798322
 C        -5.7995389863        3.9185069730       -8.0406781183
 O        -6.3969525515        2.9409257451       -7.6661356687
 C        -6.5737659810        5.1566120491       -8.5097101619
 C        -3.7499537440        5.0469358221       -7.2516500626
 C        -3.7157755354        3.8836688149       -9.3548502182
 C        -7.2239951043        2.7836962982       -3.9479554139
 C        -5.2348160710        3.5763783093       -2.7872265893
 C        -7.9764830897        4.7189976695        1.9534609185
 C        -7.1827057386        2.7846436287        3.4232294454
 C       -13.7841132884       -0.8492898650        0.9889621400
 C       -12.8846770252        0.7905740526       -0.7258599931
 C       -13.1969111196        4.0919718523        6.4632060750
 C       -15.7756808962        4.0662095441        6.3736032034
 C       -10.9472157639        7.3356265571        0.4168548081
 C       -12.6478946823        9.2341581595        0.5885310903
 H       -15.0775743752        6.7010406680       -1.3181750145
 H       -14.6341028886        8.4188280790       -0.9195577690
 H       -15.4016880644        7.3821875972        0.1696641537
 H       -14.6617334907        7.5342836272        3.1490341111
 H       -13.5319432950        8.8082643430        3.6090801070
 H       -13.6040203400        7.6177881550        5.7818702869
 H       -12.5944807673        6.4244680646        4.9309846888
 H       -16.0995752211        3.3609720309        3.0214403787
 H       -16.0020213649        2.4155694223        4.4087067685
 H       -15.7845546592        0.6703805952        2.6752419059
 H       -14.3234474719        0.8189796078        3.4653591758
 H       -10.6857713469        1.3884801999        0.3909737175
 H       -10.2975587608       -0.3199813953        0.7920048226
 H        -8.3886587095        0.5567268005        2.2004122897
 H        -9.9316021677        0.6242198400        3.1861901471
 H        -6.5115715495        0.5191167835        1.1380663933
 H        -5.1628541600        1.7847956836        1.3028826347
 H        -5.6324974525        0.1638838682       -0.8919886604
 H        -4.5626153144        1.6641028209       -0.9253566801
 H        -5.5255806655        2.7138871504       -5.4578888618
 H        -5.5269668655        0.8740662894       -5.8827661307
 H        -2.9288842791        1.4618713296       -5.3914052902
 H        -3.5344322009        3.1585960535       -4.9956926593
 H        -6.4874302471        5.8970099210       -7.8013798068
 H        -7.6648674734        4.8935896125       -8.6036069146
 H        -6.1891368042        5.4421958993       -9.5422352342
 H        -4.5432519904        5.6921839755       -6.8781467285
 H        -3.1145194071        5.6479878911       -7.8163033907
 H        -3.1486737899        4.7325415463       -6.3782215112
 H        -3.9563148128        2.9997665713       -9.9388226775
 H        -2.5341063842        3.8613427557       -9.2681614359
 H        -3.9835155518        4.7605898430       -9.9885470474
 H        -7.8735494400        3.4323612531       -3.3745420418
 H        -7.5546281263        1.9444780482       -4.4496700139
 H        -6.9075985055        3.3284492870       -4.8641274104
 H        -4.2800048512        3.2294393248       -2.4003333324
 H        -5.7921310698        4.1218854025       -2.0391421752
 H        -5.2517751485        4.2014445807       -3.7493169265
 H        -6.9036557103        5.1486762300        1.6444915505
 H        -8.1810039781        5.1707874708        2.9211926762
 H        -8.7737350475        4.8884841399        1.1946854426
 H        -7.9139041389        3.0516563550        4.1360640911
 H        -6.2567548116        3.2076479534        3.5399193558
 H        -7.1540827370        1.6839779028        3.4441552895
 H       -14.7427530591       -0.9953329651        0.4541426759
 H       -13.7127416004       -1.1021869065        2.0171390995
 H       -13.1831300760       -1.6692133570        0.6092860708
 H       -12.2338933180        0.0782136445       -1.2391955957
 H       -12.6019533485        1.7764245546       -0.9560814221
 H       -13.7287743255        0.5653488802       -1.4376987039
 H       -13.0622499873        3.0227187451        6.4601517237
 H       -13.2133533389        4.5947497245        7.4460687250
 H       -12.2477438972        4.5296470283        6.0652003233
 H       -15.5537124378        4.6213787259        7.3404120355
 H       -15.7172359251        2.9540768346        6.4784986642
 H       -16.6352100120        4.5791036664        5.9972298402
 H       -10.8539568046        6.2891915467        0.2084511665
 H       -10.1855409089        7.6907015843        1.0820742873
 H       -10.8256096045        7.8936296948       -0.5570755537
 H       -11.8026242586        9.6567271082        1.0853616605
 H       -13.5527338640        9.5740484463        1.0671961992
 H       -12.4569508851        9.4755458158       -0.4998510015
 Na      -12.2422705270        3.9899809749        1.7470151814
