117

 C        -8.8875435793        2.2307612306        6.8468071199
 C        -9.8879348169        2.3154497920        5.6778199843
 O       -10.0830336086        1.3804611680        4.8671416266
 C       -10.6768510642        3.6969514274        5.4954862674
 C        -9.9031167702        4.4695075718        4.3887214878
 O        -8.9078373177        5.1398836090        4.6487242054
 C       -10.2853875011        4.1390334969        2.8886681174
 C        -9.1603680764        4.3552778863        1.9437418366
 C        -8.3620411733        3.0788738173        1.6310844330
 O        -8.8398980281        1.9393721740        1.7479160498
 C        -6.9218628911        3.2437415492        1.0884374728
 C        -7.0392600963        3.7946605540       -0.3865237860
 O        -8.0177221759        3.4878149812       -1.0556882975
 C        -5.9947833792        4.7465081810       -0.9253373108
 C        -6.5546082196        5.5500183206       -2.1202060329
 C        -5.6257577704        5.3977216849       -3.2873324262
 O        -4.4934744816        4.9082677473       -3.1823854905
 C        -6.1486665064        5.8629869197       -4.7411047025
 C        -7.5314747027        6.7169460857       -4.6388676392
 O        -7.5540421114        7.7891975532       -4.0398793283
 C        -8.6095128225        6.3434113601       -5.5895186669
 C        -9.9096075548        7.0940006035       -5.3738872339
 C       -10.7618111477        6.4284182634       -4.2748381239
 O       -10.8408056892        5.2069078179       -4.3316693338
 C       -11.5353076628        7.2448288815       -3.2508312890
 C       -11.8893714579        6.4222139838       -1.9564881690
 O       -11.1686464629        6.3988867800       -0.9865312085
 C       -13.0925764931        5.3702058712       -2.0734937829
 C       -13.5767638266        4.9809298636       -0.6867429782
 C       -14.2910665360        3.6485583562       -0.6212917022
 O       -14.7437360693        3.0948787434       -1.6229807274
 C       -14.7513418625        3.1636677950        0.8336567283
 C       -13.6563239720        2.0142465068        1.1397166901
 O       -12.7027608795        2.3274444131        1.8415155182
 C       -13.7626861790        0.6549654029        0.4883749014
 C       -12.7170385203       -0.4243813379        0.7875437980
 C       -11.3374876790       -0.1446323513        0.2049556583
 O       -10.9162080558        0.9902825103        0.1238471623
 C       -10.4551457966       -1.3806765407       -0.1163320405
 C        -9.9424625451       -1.9120414757        1.2516146913
 O       -10.0000926386       -1.2083988421        2.2540995997
 C        -9.2176963103       -3.2280009512        1.2218619325
 C       -11.3961453275       -2.4402247135       -0.8304847322
 C        -9.2617573970       -0.9159749078       -0.9816696460
 C       -14.6047232127        4.2257880606        1.9802455701
 C       -16.1827578352        2.6680306883        0.7663317651
 C       -10.7105401182        8.4996262762       -2.8757511202
 C       -12.7982581161        7.7764244020       -3.9498134204
 C        -5.2109047306        6.8460811756       -5.3807173606
 C        -6.2212128907        4.5396039246       -5.5035314763
 C        -6.1527529209        4.1969256326        1.9845852571
 C        -6.2089559732        1.8704772571        1.0122352112
 C       -12.1809871832        3.4377698582        5.0584100776
 C       -10.6767163296        4.5051585230        6.7821487734
 H        -8.1735114198        3.0552912483        6.6875697786
 H        -8.4502100352        1.2022056404        7.0113643584
 H        -9.2473456153        2.4701722483        7.7957506672
 H       -11.0528113305        4.8718761446        2.6872738134
 H       -10.7982609687        3.1667858637        2.9441159288
 H        -8.4946017786        5.1352838156        2.3636121943
 H        -9.5886264216        4.8864956099        1.0864605225
 H        -5.1941440072        4.1158634092       -1.3081455770
 H        -5.6308922762        5.3957982938       -0.0997462718
 H        -6.3637163678        6.6329092197       -1.9138674960
 H        -7.5847582454        5.3917454762       -2.3627724065
 H        -8.8868410594        5.3130176595       -5.7006103525
 H        -8.2047744810        6.7232517522       -6.4997347788
 H       -10.4696195294        6.9754124111       -6.2898750027
 H        -9.7593012338        8.2105733617       -5.2787747252
 H       -12.6390008526        4.5178682057       -2.6300984376
 H       -13.8866648306        5.7702509619       -2.7440534575
 H       -14.3477318685        5.7873605568       -0.5087336224
 H       -12.8215389360        5.0299898146        0.1253023280
 H       -13.7057548085        0.7919628230       -0.5961052560
 H       -14.7368315334        0.3767683342        0.7249717057
 H       -13.1423496536       -1.4259661184        0.5239824588
 H       -12.6202959587       -0.5392684472        1.8880174133
 H        -9.8404546009       -3.9877647360        0.6533335398
 H        -9.0212388528       -3.5834436283        2.2225985307
 H        -8.2626109739       -3.0753794844        0.8000015652
 H       -12.0588241797       -1.9022912689       -1.4778045945
 H       -12.0012067950       -3.0164580153       -0.2005473932
 H       -10.7926108255       -3.2021725978       -1.3459384897
 H        -9.4401922914       -0.9530142317       -2.0731700754
 H        -8.5460477966       -1.7744639336       -0.8165785041
 H        -8.8627795348       -0.0417334248       -0.5037164021
 H       -13.5424947464        4.5461932445        2.1000814053
 H       -14.7287477187        3.6620328849        2.8605682926
 H       -15.2415927828        5.0672286498        1.8927035467
 H       -16.2053647061        1.5893375722        0.4548558749
 H       -16.9207271283        3.1944994213        0.1050157641
 H       -16.5827915455        2.6864136475        1.7337539841
 H       -11.3137856116        9.1397336691       -2.2884942538
 H       -10.4623702346        9.0440247612       -3.7343620744
 H        -9.8686936839        8.2700758250       -2.1658573656
 H       -13.2797452630        6.9177393339       -4.4786246197
 H       -12.4850549303        8.3930994765       -4.7887595112
 H       -13.5881286811        8.3540676769       -3.4859977813
 H        -4.2450873982        6.4631670872       -5.6481974838
 H        -5.0212552675        7.7255639054       -4.8792826029
 H        -5.6573541415        7.2354275320       -6.3291156526
 H        -7.0174041630        3.9333082201       -5.0582256769
 H        -5.3294015827        4.0091835861       -5.3039250528
 H        -6.3372023881        4.6045868791       -6.5949828501
 H        -6.3966265369        3.9359448179        3.0165351656
 H        -6.3616323859        5.2902534699        1.9173350142
 H        -5.1079538653        4.0320846030        1.8978330821
 H        -5.1789492866        1.9251240120        0.6063369776
 H        -6.7966704024        1.1993649408        0.3202323016
 H        -5.9401771472        1.4359724961        2.0057591092
 H       -12.5024917129        2.8568811464        4.1819029598
 H       -12.6777914580        4.3454418836        4.9310933231
 H       -12.6949260935        3.0202877096        5.9360028693
 H        -9.6305980630        4.8706817965        6.9691198670
 H       -11.1074865338        3.9292021111        7.5994702742
 H       -11.3863954189        5.3243106381        6.6275690565
 Na      -10.6735094249        0.9700925355        2.5941218651
