117

 C        -9.9000186720        2.0731293854        7.1194937506
 C       -10.3090776960        2.6380003317        5.7803912599
 O       -10.5432434755        1.8600472626        4.8460771920
 C       -10.4908824980        4.2255587352        5.6713129489
 C        -9.5687113172        4.5530496523        4.4674993253
 O        -8.3708919574        4.4979226819        4.5645157281
 C       -10.1252445713        5.0253198918        3.0406934869
 C        -8.9586156478        5.1513258732        2.0576305692
 C        -8.1679781335        3.8783230921        1.7436940320
 O        -8.6668374682        2.8024833750        2.0009704963
 C        -6.8798716112        4.0877815812        0.9399424622
 C        -7.2904256670        3.9340775326       -0.6505843032
 O        -8.4012899762        3.6587627936       -0.9678808953
 C        -6.1596021539        4.1520619792       -1.7131006497
 C        -6.8094397999        4.3345885414       -3.1056268521
 C        -5.9244755514        5.2904285157       -4.0402946524
 O        -4.8834082075        5.7836177336       -3.7073053108
 C        -6.4147322952        5.5476106897       -5.4719281520
 C        -7.8751307308        6.0379766112       -5.3515788822
 O        -8.1396299096        7.1189235333       -4.8801104152
 C        -8.9629445469        5.1742717112       -6.0224404473
 C       -10.3601781141        5.6907234873       -5.6149916090
 C       -10.4812899583        5.8003643896       -4.0947892540
 O        -9.8693192273        5.0236331674       -3.3793375140
 C       -11.6001305284        6.6992498381       -3.5526607249
 C       -12.0151969622        6.0076888919       -2.1472847156
 O       -11.8544716213        6.6058967312       -1.1012522374
 C       -12.7770001602        4.6568528078       -2.0783194653
 C       -13.1940328290        4.3634391111       -0.5452031591
 C       -14.1522474579        3.2417271078       -0.4666503349
 O       -14.5098449893        2.6730616603       -1.4448206940
 C       -14.6952637929        2.6741465226        1.0120029076
 C       -13.8044664566        1.5226771383        1.4272793940
 O       -13.0349838015        1.6047468144        2.4110508822
 C       -13.6796559742        0.2450056347        0.4989958141
 C       -12.5311201083       -0.6449092345        0.8658699368
 C       -11.2310542370        0.0608405819        0.4838407122
 O       -11.0579553623        1.2354537467        0.1502689323
 C        -9.9412211912       -0.8365118556        0.5850969851
 C        -9.8652054715       -1.3910507243        2.0099375941
 O       -10.0957398579       -0.6456759516        2.9378682818
 C        -9.5466252159       -2.8490444262        2.3799864989
 C       -10.1261531005       -1.9929073627       -0.5148814689
 C        -8.6773568926       -0.0122672045        0.2789219715
 C       -14.6765699094        3.7330927098        2.1082634124
 C       -16.1251597829        2.2276842986        0.7407836240
 C       -11.0495981305        8.0943678199       -3.2694834423
 C       -12.8773280851        6.8454827451       -4.4056119222
 C        -5.4475828027        6.5426729809       -6.1531401724
 C        -6.2479667902        4.2497754740       -6.2625047789
 C        -6.1028375608        5.4189846248        1.2001431879
 C        -5.8537909955        2.9615961440        1.3420301229
 C       -12.0061428382        4.5329720356        5.4077518729
 C       -10.0322323362        5.0937915042        6.8735620539
 H        -8.9314051666        2.2911931610        7.4516288525
 H        -9.8417775024        0.9663969001        6.9656066968
 H       -10.6338588595        2.3240240460        7.8975539705
 H       -10.6982325050        5.9380727357        3.1027819496
 H       -10.8925499342        4.3128826697        2.6745401352
 H        -8.2594665326        5.9329576090        2.4488837038
 H        -9.3782871813        5.4787724691        1.0758129331
 H        -5.5335000218        3.2753499914       -1.6144044618
 H        -5.5488155266        5.0321775370       -1.4589884719
 H        -7.8430603827        4.7971859477       -3.0144333363
 H        -6.9818628844        3.4142089769       -3.6209514769
 H        -8.8714453568        4.1496032575       -5.7691477722
 H        -8.8033661629        5.1364230182       -7.0935250488
 H       -11.1196567697        5.0421735073       -6.0688976876
 H       -10.5652574872        6.7216623831       -6.0459344737
 H       -12.2309626032        3.7570455062       -2.3916519416
 H       -13.5917298081        4.7376872043       -2.8140693809
 H       -13.6282811158        5.2916587466       -0.1368726949
 H       -12.1944046086        4.1887345780       -0.0350702615
 H       -13.4423713546        0.6391827781       -0.5060326333
 H       -14.6067991305       -0.2934148546        0.5052260969
 H       -12.6497207190       -1.5174035283        0.2201822006
 H       -12.5930432328       -0.8886184968        1.8962070576
 H       -10.2296602759       -3.5762704712        1.9272480260
 H        -9.4812383440       -2.9667633770        3.4509981196
 H        -8.5718773905       -2.9822833960        1.8465308377
 H       -10.4504241861       -1.4818117394       -1.4062088862
 H       -10.9669865875       -2.6044069109       -0.3111399259
 H        -9.2954681974       -2.7149974413       -0.6907820297
 H        -8.5789505274        0.1968235099       -0.7865159207
 H        -7.7410957886       -0.5538593542        0.5591132770
 H        -8.7648267993        0.9484193263        0.8021836370
 H       -13.6260081749        4.0663715952        2.3180217972
 H       -14.9872898032        3.3954390213        3.1000725974
 H       -15.1339288816        4.5878862876        1.7438749019
 H       -16.3167007952        1.9631486969       -0.2865509100
 H       -16.8287150564        3.0000967078        0.9330126780
 H       -16.4233894547        1.3776082941        1.3794277287
 H       -11.8160237420        8.8334580244       -3.0280352420
 H       -10.5533976176        8.4733334915       -4.1740632459
 H       -10.4384397595        7.9949204592       -2.4135515901
 H       -13.1684139837        5.8410820357       -4.7600091725
 H       -12.8115534871        7.6011818730       -5.1840867763
 H       -13.6400694198        7.0780098961       -3.6861139708
 H        -4.4071963365        6.1471392789       -6.1333952693
 H        -5.4139031126        7.4827215966       -5.5768036850
 H        -5.6630432843        6.7841024428       -7.1170095747
 H        -6.9815797668        3.4810450740       -5.9127706395
 H        -5.2571654020        3.8697792257       -6.2665016825
 H        -6.5587349011        4.4713487606       -7.3165692668
 H        -5.8553674066        5.5624073966        2.2405754836
 H        -6.6175167213        6.2700660086        0.7488958803
 H        -5.1561292548        5.2876980212        0.6535531584
 H        -4.9022485561        2.9971990856        0.7930895929
 H        -6.3552593119        1.9935966978        1.0798655344
 H        -5.5008804835        3.0662855691        2.3650845163
 H       -12.4317773304        3.8556571246        4.7462454475
 H       -12.0870791346        5.5159460355        4.9799021734
 H       -12.5236791869        4.5462046507        6.3752703489
 H        -9.1769562412        4.6611524157        7.3265449620
 H       -10.8010400359        5.1767400873        7.6583274201
 H        -9.7760408249        6.0738347608        6.5878895255
 Na      -10.6505317601        1.6317866283        2.6248895744
