117

 C       -10.0628434126        2.0729224014        7.1954914623
 C       -10.3612781836        2.6611631907        5.8366193660
 O       -10.4989450556        1.9503562866        4.8546656790
 C       -10.4179111997        4.1859043225        5.6629777021
 C        -9.5196219195        4.6085292169        4.4327070858
 O        -8.3064778542        4.6214076916        4.5775016559
 C       -10.1709785497        5.0837868669        3.1245640122
 C        -9.0753684874        5.2975539166        2.0585169765
 C        -8.2286334595        3.9586823127        1.7436743057
 O        -8.6373634916        2.8522712855        2.0416639323
 C        -6.9273515265        4.0917055340        0.8969213812
 C        -7.3324033211        3.8849559769       -0.6335879268
 O        -8.4665888582        3.5732232773       -0.9472856909
 C        -6.2452747673        4.1322620517       -1.7547073097
 C        -6.7065138888        4.3125279052       -3.1719537574
 C        -5.8928924747        5.2155030918       -4.0243172987
 O        -4.9154762522        5.8092312778       -3.5832318698
 C        -6.4411463353        5.4696199888       -5.5747543844
 C        -7.8776253161        6.0422014645       -5.5305288192
 O        -8.1395653287        7.1332965326       -4.9905139517
 C        -9.0298097239        5.1565072099       -6.0325644848
 C       -10.4162234068        5.6278803002       -5.5785925797
 C       -10.5604203049        5.6791695770       -4.0718164862
 O        -9.7948590646        5.0598894935       -3.3158524489
 C       -11.6357211128        6.5442726692       -3.4804755870
 C       -12.1066067496        6.0079928615       -2.0920380955
 O       -11.7376844637        6.6304049497       -1.1179697157
 C       -12.7239422063        4.6556744889       -2.0049257215
 C       -13.2438589341        4.3973946150       -0.5894767184
 C       -14.1745853343        3.1804910447       -0.5140180572
 O       -14.5452905835        2.5956694089       -1.5365147542
 C       -14.6470130530        2.7294294589        0.9069373068
 C       -13.7039831350        1.6308956529        1.4100143224
 O       -12.9871349814        1.7290316259        2.3995046170
 C       -13.7439064300        0.2926809258        0.5716240904
 C       -12.5228260231       -0.6062811949        0.8239709696
 C       -11.1855406898        0.0099980802        0.4514202493
 O       -11.0995931284        1.2485033734        0.3898483245
 C        -9.9009739102       -0.9006986861        0.5244535923
 C        -9.8177824443       -1.3785646396        2.0619804862
 O       -10.0638428903       -0.5947940666        2.9761692601
 C        -9.5209754848       -2.8245118039        2.4052586936
 C        -9.9511185263       -2.0198921288       -0.5323438086
 C        -8.5921551290       -0.0847386138        0.3183195581
 C       -14.6713903138        3.8533076387        2.0004507335
 C       -16.0793653912        2.0632651168        0.7581299978
 C       -11.0204277113        8.0265662151       -3.2041306622
 C       -12.8442248161        6.7192986405       -4.4705968267
 C        -5.5585367941        6.6109159110       -6.1090584672
 C        -6.3261346693        4.1299073531       -6.3934056622
 C        -6.2084565070        5.4420300967        1.2161294347
 C        -5.9007173620        2.9831010708        1.2300638419
 C       -11.9545489171        4.5472130882        5.3512866267
 C        -9.9381996525        4.9555040153        6.8511482416
 H        -9.0536163470        2.2928180115        7.3819762209
 H       -10.1186734778        0.9411655283        7.3933638981
 H       -10.6188063921        2.6453930810        7.9428914340
 H       -10.7423932595        6.0126329534        3.3532658160
 H       -11.0186020869        4.4120712769        2.8566560348
 H        -8.3680891967        6.0376610889        2.4935135172
 H        -9.5079904099        5.6992765527        1.1133316372
 H        -5.6122210361        3.2078871518       -1.6934060409
 H        -5.6416366217        4.9867377214       -1.4122657163
 H        -7.7127449295        4.7713887308       -3.2330083845
 H        -6.8364231951        3.3112061484       -3.7187294921
 H        -8.9096343277        4.1266850070       -5.5989541953
 H        -8.9780406377        4.9795335134       -7.0883698868
 H       -11.1605652445        4.9575293693       -6.1044473106
 H       -10.6433400445        6.6420450551       -5.9368294280
 H       -12.0883108530        3.8033261145       -2.3168677603
 H       -13.5322006932        4.6284074709       -2.7350903838
 H       -13.7448335679        5.3488299986       -0.3896875500
 H       -12.4084306148        4.3240687513        0.0534007772
 H       -14.0103469778        0.4625521358       -0.5024257305
 H       -14.5252130295       -0.2900683367        1.0988649644
 H       -12.7467296513       -1.5083135299        0.3268783013
 H       -12.5429536882       -0.7299319713        1.8752870496
 H       -10.3786954271       -3.3502498516        2.1792569340
 H        -9.2430398110       -3.0049619450        3.4616593152
 H        -8.7613444892       -3.1364877672        1.6633661716
 H       -10.1862780330       -1.6396912968       -1.5271189390
 H       -10.7289083367       -2.7767474298       -0.2915283070
 H        -9.0120364632       -2.5651393983       -0.5526780602
 H        -8.6126774954        0.3105729995       -0.7080245830
 H        -7.6225770584       -0.6306763855        0.3721627054
 H        -8.6551764311        0.8101391232        1.0265039547
 H       -13.7539875255        4.3639623985        2.1305726181
 H       -14.8474883513        3.3763771797        2.9949973005
 H       -15.3932502070        4.6522547203        1.7438080783
 H       -16.1251085372        1.3698847806       -0.0610177346
 H       -16.8168014822        2.7938586313        0.5148847751
 H       -16.4456208488        1.5129196905        1.6858367377
 H       -11.7388027223        8.8247688573       -3.2545526936
 H       -10.3381112024        8.2130041829       -4.0345703760
 H       -10.5752317564        8.0613013369       -2.2662972107
 H       -13.1091379514        5.7363069664       -4.8313860297
 H       -12.6209550407        7.4490431340       -5.2903853753
 H       -13.6692782682        7.1334930040       -3.8677125110
 H        -4.5186674837        6.4352825444       -5.8777423899
 H        -5.8453546814        7.5270727564       -5.5474920685
 H        -5.6481417465        6.9093909782       -7.1614882468
 H        -7.2315821847        3.5718574077       -6.3614743044
 H        -5.4267620450        3.4620653549       -6.1486207010
 H        -6.2334848645        4.4141622765       -7.4119439722
 H        -5.9312311408        5.4371939215        2.2582740951
 H        -6.8054208862        6.2747337938        0.9687771006
 H        -5.2616196626        5.5105832182        0.6031776202
 H        -4.9506219813        2.9972218422        0.5941642948
 H        -6.3437279727        1.9898251297        1.1460987482
 H        -5.4527341771        3.2424990052        2.2216191545
 H       -12.4762444824        3.7979286882        4.8014012572
 H       -12.0112852022        5.5343173285        4.8528308209
 H       -12.3782146827        4.6841787812        6.3112343991
 H        -9.1080597544        4.4234538274        7.3074183668
 H       -10.7102919935        5.0159750073        7.6504178836
 H        -9.5404864408        6.0077390901        6.6425179674
 Na      -10.6153742039        1.6989959788        2.6293203349
