117

 C        -9.3472123912        2.2141557136        6.9955640712
 C       -10.3060892633        2.5927805440        5.7964445787
 O       -10.7891487192        1.6880401354        5.1235163363
 C       -10.6649620733        4.0574823860        5.4981421057
 C        -9.5483826997        4.4213162840        4.3825329898
 O        -8.3718339171        4.3747114594        4.5686850642
 C       -10.1246572676        4.7988747102        2.9646509456
 C        -8.9787906665        4.9260569725        1.9806285732
 C        -8.1770299087        3.6668725112        1.7227657564
 O        -8.5837524700        2.5401482460        1.9250078081
 C        -6.7906868648        3.8929458443        1.0799630485
 C        -7.1341143951        3.9871619267       -0.4725702098
 O        -8.2579188421        3.8392032888       -0.8672270166
 C        -6.0168187806        4.3098863103       -1.4490035486
 C        -6.5888681087        4.7374981517       -2.7713138584
 C        -5.6728365321        5.3591161563       -3.8879211240
 O        -4.5505614224        5.6812648166       -3.7061678860
 C        -6.3274606043        5.5364779688       -5.3614951891
 C        -7.7311340855        6.1619771111       -5.1730111749
 O        -7.9102265839        7.0919012653       -4.4397867281
 C        -8.8928748575        5.6209873791       -5.9539426560
 C       -10.1707207141        6.2737924157       -5.4716675433
 C       -10.7191325038        5.7624607250       -4.1142859171
 O       -10.3517411700        4.7735431695       -3.5554308004
 C       -11.6602365725        6.8120428035       -3.4615009861
 C       -12.0735095790        6.3130334497       -1.9393845924
 O       -11.8609999453        6.9761905385       -0.9439086635
 C       -12.8972622524        4.9475743727       -1.8923187417
 C       -12.9816316980        4.3959262547       -0.4579309391
 C       -14.0430688620        3.3278920556       -0.4244409516
 O       -14.5144555010        2.8927627821       -1.4281267502
 C       -14.6332194065        2.7758528711        1.0032739676
 C       -13.7697653518        1.5728813071        1.3000621743
 O       -12.9611795302        1.6318691997        2.2167123178
 C       -13.9870550966        0.2415384133        0.4688047710
 C       -12.7912314984       -0.7819017882        0.3741304186
 C       -11.4090713772       -0.1495430043        0.1802552198
 O       -11.2612304894        1.0119503399       -0.0476280219
 C       -10.1123205544       -1.1070656921        0.2871904555
 C        -9.9473721275       -1.4287676833        1.8097656564
 O       -10.1895910582       -0.5946330505        2.6419606615
 C        -9.4068165567       -2.8047502507        2.2845100669
 C       -10.2135144376       -2.3063162606       -0.7142986864
 C        -8.9157706043       -0.1470731015        0.0410445457
 C       -14.4483857203        3.9288078322        2.0319357864
 C       -16.1547402890        2.4275249250        0.8940225186
 C       -11.0134312025        8.1717347832       -3.3909863076
 C       -13.0517719126        6.9251712734       -4.1757843320
 C        -5.5392960803        6.6388382186       -6.0522375638
 C        -6.1146154202        4.1533215932       -6.0854615556
 C        -6.0452865792        5.1041933224        1.6286010166
 C        -5.8218831270        2.6955834691        1.2095951991
 C       -12.0958991712        4.2897563154        5.0472965957
 C       -10.3519694147        5.0197451870        6.6933726518
 H        -8.2996641838        2.6421393788        6.9760297493
 H        -9.0474183996        1.2420386006        6.9826632994
 H        -9.8094624636        2.4256659886        7.9713636961
 H       -10.6727920580        5.7412143301        3.0447587405
 H       -10.8592439464        4.0046573960        2.6697886633
 H        -8.2735332156        5.6958837262        2.3606035414
 H        -9.5127728451        5.2312362722        1.0483593437
 H        -5.3789237153        3.4280736546       -1.5995823080
 H        -5.3290654184        5.0401690912       -0.9583938178
 H        -7.4094637468        5.5519663738       -2.7111446522
 H        -7.0837340287        3.8720364501       -3.2011064505
 H        -8.9494456762        4.5577206125       -5.7884158961
 H        -8.7602000368        5.6332469951       -7.0439368277
 H       -10.9470661716        6.0470523170       -6.2217672993
 H       -10.0042752368        7.4119786420       -5.4555136552
 H       -12.2970434297        4.3472902460       -2.5645855193
 H       -13.9203711837        4.9244476509       -2.2730061114
 H       -13.2281941423        5.2218854515        0.1993831202
 H       -11.9934212582        4.0226624515       -0.1308486098
 H       -14.1171805432        0.6328530669       -0.5792685312
 H       -14.9331924514       -0.2003801133        0.8405305644
 H       -13.0399289643       -1.4028475538       -0.4633368502
 H       -12.8269535264       -1.3695906243        1.2363056642
 H        -9.7378937803       -3.7187763062        1.7152986252
 H        -9.5562095681       -2.8331526122        3.3180459463
 H        -8.3663792292       -2.7008882379        2.0416885644
 H       -10.2795989377       -2.0735694187       -1.7733405997
 H       -11.0729107963       -2.9020439136       -0.5748926064
 H        -9.3824168968       -3.0154031673       -0.4903100901
 H        -9.1476106025        0.4708612493       -0.8634338306
 H        -8.0126390143       -0.8254952603       -0.0937545294
 H        -8.7701696759        0.5885380336        0.8365823946
 H       -13.3751860774        4.2785288335        2.1395897859
 H       -14.7100936143        3.6949227063        3.0648981834
 H       -15.0473479939        4.7440658134        1.7087605844
 H       -16.5154820145        1.8084919330        0.0542497310
 H       -16.7142635140        3.3595697164        0.7125593089
 H       -16.5423005646        2.0293960806        1.8084952367
 H       -11.4114320405        8.7233786480       -2.5644396032
 H       -11.2580722039        8.7045469241       -4.2852843273
 H        -9.9184043687        8.0829744224       -3.3438133219
 H       -13.7687060661        6.1246047903       -3.9575503950
 H       -13.0026111091        7.1817837567       -5.2274606471
 H       -13.5227237585        7.6641851526       -3.5556807882
 H        -4.4610197141        6.4634782821       -5.8101518924
 H        -5.6606421505        7.6061120669       -5.6173088078
 H        -5.5153463364        6.6479770224       -7.1115665160
 H        -6.6336799664        3.2803522300       -5.6582064453
 H        -5.1226693548        3.9305726069       -6.1213001354
 H        -6.4485808096        4.2534524072       -7.1389859577
 H        -5.8596998033        4.9170021814        2.6731719222
 H        -6.5581762655        6.0691907334        1.4989076565
 H        -5.0836408691        5.1003153668        1.1727513491
 H        -4.9497438446        2.7752147701        0.5296305105
 H        -6.3744270470        1.6980390390        1.0102832143
 H        -5.4687735283        2.5772228070        2.2684211954
 H       -12.4092171587        3.5785970556        4.2922897810
 H       -12.1639558042        5.2705733020        4.6246128426
 H       -12.7932506633        4.2106660200        5.9277929326
 H        -9.2501549488        5.2800387413        6.7795143300
 H       -10.7089099783        4.6721998194        7.7109620088
 H       -10.9576836190        5.9190616346        6.5951987057
 Na      -10.7060439679        1.6115748037        2.6450851652
