117

 C       -10.5944819208        2.3877338339        7.5195293541
 C       -10.3597426771        2.8380026401        6.0396804301
 O       -10.2871057160        2.0517730295        5.1208025522
 C       -10.3241282890        4.4199282791        5.7545438152
 C        -9.5525766767        4.7366377817        4.4583216080
 O        -8.3668207553        4.7734388066        4.5417023046
 C       -10.2528410489        5.0430444359        3.0874637744
 C        -9.2085757233        5.2821274238        1.9823837380
 C        -8.3723954182        4.0533624741        1.6572786969
 O        -8.6512771989        2.9058472630        2.0076770423
 C        -7.0978127518        4.2498032434        0.7123035847
 C        -7.5071352501        3.8661350209       -0.7612986908
 O        -8.5035175314        3.2705975449       -1.0232369069
 C        -6.4288169118        4.1422293431       -1.8239931039
 C        -6.8448105714        4.1159227749       -3.2475899156
 C        -6.0036133382        5.1865076970       -4.0793505827
 O        -5.2800766843        5.9364179417       -3.4966624473
 C        -6.3775604095        5.3050345456       -5.5894866217
 C        -7.9767795208        5.8392824618       -5.7434929272
 O        -8.1759851323        7.0058082385       -5.8080638966
 C        -9.0364523951        4.6754964282       -5.9792652661
 C       -10.4813872238        5.1745744526       -5.6656643905
 C       -10.6902164525        5.4077439485       -4.1354360790
 O       -10.1129504994        4.7984756449       -3.2930728928
 C       -11.7620143528        6.5257637547       -3.5072019980
 C       -12.0592613311        5.9006580397       -2.0596012372
 O       -11.8047538498        6.5721657145       -1.0550930468
 C       -12.5733179041        4.5004935392       -1.8468512373
 C       -13.5448053449        4.4740672582       -0.6863045303
 C       -14.2176115799        3.0903362388       -0.5720098194
 O       -14.2862248366        2.3086993665       -1.4618902953
 C       -14.8279894397        2.6813582023        0.9540861603
 C       -13.5952186578        1.8003745247        1.3634983942
 O       -12.6326668355        2.2269042741        1.9566756939
 C       -13.5941914437        0.3343676416        0.7505185994
 C       -12.2997546259       -0.3918234518        1.1220108547
 C       -11.0128173062        0.1541879424        0.5377992237
 O       -10.9377274661        1.2658369457        0.1235196287
 C        -9.7402084015       -0.7705396678        0.7160665016
 C        -9.5692942694       -1.1389665146        2.2190676410
 O        -9.5778776734       -0.3057754733        3.1182645854
 C        -9.2708452981       -2.7015431527        2.5684039696
 C        -9.9480103026       -2.0856638413       -0.1840215014
 C        -8.3962823211       -0.0879416101        0.3662263037
 C       -14.9836695900        3.8298276982        1.9427723522
 C       -16.0517009040        1.8041272028        0.6818384875
 C       -10.9185799930        7.7574275088       -3.2390290396
 C       -12.9881610818        6.6339035403       -4.4029423214
 C        -5.5848547074        6.4964625056       -6.1640337652
 C        -6.1366867567        4.0484551478       -6.5048532906
 C        -6.6004025658        5.7058731614        0.7893494073
 C        -6.0511697443        3.2143130461        1.1961180850
 C       -11.8121355120        4.8137353298        5.7774845251
 C        -9.5547902578        5.0150705620        6.9919751056
 H        -9.8399408978        2.7824705143        8.2851485526
 H       -10.6939006682        1.3409800165        7.4932843082
 H       -11.5561088325        2.7497524973        7.9027222891
 H       -11.0618854796        5.8381245447        3.0617462527
 H       -10.8602449697        4.1811926214        2.7478481496
 H        -8.5417372735        6.1211492242        2.2342545105
 H        -9.6391957611        5.5796739870        1.0000468033
 H        -5.6505107874        3.3594495032       -1.6788782249
 H        -6.0301016293        5.1390194236       -1.5957944320
 H        -7.9288082421        4.3015071823       -3.3547989633
 H        -6.6084834445        3.0983536997       -3.7064593420
 H        -8.7802228848        3.8279786448       -5.3392756692
 H        -8.9967922672        4.3991071988       -7.0351266368
 H       -11.2654807179        4.4213239458       -5.9882236242
 H       -10.6513789343        6.0835792418       -6.2528570988
 H       -11.8958910240        3.7010947659       -1.5448837182
 H       -13.0833167138        4.0715189576       -2.7120867406
 H       -14.3099248965        5.2147252758       -0.9207527770
 H       -13.1157034552        4.7817109644        0.2351197233
 H       -13.7122794442        0.5366684479       -0.3218672984
 H       -14.5187632806       -0.2473320744        1.0689965049
 H       -12.4385196655       -1.4270590795        1.0030772390
 H       -12.1402207446       -0.2789416131        2.1840206544
 H       -10.1507688337       -3.3259789284        2.2154328046
 H        -9.2287951636       -2.8375696801        3.6176720410
 H        -8.3496351921       -3.0268544102        2.1820793475
 H       -10.0738972286       -1.7838039215       -1.2057026889
 H       -10.6807199065       -2.7518998090        0.2279607622
 H        -9.0073411622       -2.5696117383       -0.2710203974
 H        -8.4395941794        0.0629417106       -0.7663964131
 H        -7.4831914558       -0.6556021210        0.6058878464
 H        -8.2252434294        0.8890304465        0.8327298709
 H       -13.9941175915        4.1518440215        2.2890139359
 H       -15.6512315359        3.6105827452        2.7068014067
 H       -15.4898816325        4.6980482527        1.5175147548
 H       -15.9265254451        1.3595291848       -0.3267934820
 H       -16.9539418185        2.4581863194        0.7194341298
 H       -16.1944791085        0.9782294496        1.2877622610
 H       -11.3763478300        8.2721718337       -2.4285719483
 H       -10.9321309208        8.3742594859       -4.0793862964
 H        -9.8359316921        7.5744080539       -2.9594393206
 H       -13.1812269353        5.6857170856       -4.8773315110
 H       -12.8321959801        7.3674792546       -5.1427645173
 H       -13.7746053417        7.0874852849       -3.7982426183
 H        -4.5193552988        6.2247478550       -6.1448247483
 H        -5.7913972500        7.4241592565       -5.6804409206
 H        -5.9012750085        6.7002451829       -7.2002896943
 H        -6.3139955269        3.1163137692       -5.9407228204
 H        -5.1458838727        4.0192915106       -6.8498881775
 H        -6.8033972537        4.1891405184       -7.3915263360
 H        -6.3018072610        6.0609607027        1.7897220762
 H        -7.4510127676        6.3394090234        0.4506449698
 H        -5.8618555414        5.9083754880        0.0816093677
 H        -5.1971650462        3.2685130624        0.5054753495
 H        -6.4810210961        2.1631504316        1.1314304314
 H        -5.8242293729        3.3157750605        2.2910376693
 H       -12.3225405581        3.9398728242        5.3433453754
 H       -11.9449559370        5.6676147919        5.2040287727
 H       -12.1837363407        4.9670648071        6.7546401956
 H        -8.5245559427        4.6006534787        7.1743452428
 H       -10.0853333677        4.9329019289        7.9488086970
 H        -9.3266872248        6.0240383172        6.7131066658
 Na      -10.4229504910        1.6968313609        2.7572852261
