117

 C       -10.5980508804        2.3690237708        7.4851872883
 C       -10.4334169298        2.9238551163        6.0663409079
 O       -10.2978898057        2.1705756340        5.1380051059
 C       -10.3075414357        4.5075388030        5.7982523141
 C        -9.5922364261        4.7099436905        4.4647720519
 O        -8.3634549699        4.6439219973        4.5260269968
 C       -10.3498833972        4.8317600740        3.1855934348
 C        -9.4106184192        5.1532063223        2.0264562668
 C        -8.4401566294        3.9512979562        1.6325267738
 O        -8.7380824101        2.8007513547        1.8588982351
 C        -7.1941290103        4.3323764382        0.7806330699
 C        -7.4042516564        3.8072088375       -0.7458526834
 O        -8.4399641008        3.2399293818       -0.9745682442
 C        -6.3500441867        4.0364379604       -1.8706686811
 C        -6.9796222215        4.1368240221       -3.3155020693
 C        -6.2439931411        5.2276593221       -4.1509994381
 O        -5.3908305696        5.9816717004       -3.7246076881
 C        -6.5428613823        5.3419002587       -5.7123345389
 C        -8.0139174673        5.8044830366       -5.8661589638
 O        -8.3482126846        6.9876244532       -5.9290428776
 C        -9.0882490159        4.6147488190       -5.9637754474
 C       -10.4332850604        5.3050405645       -5.5947004661
 C       -10.5775919405        5.2464508482       -4.0657879361
 O        -9.9660399695        4.4165704347       -3.3804925000
 C       -11.6047510720        6.3407252483       -3.4703933818
 C       -12.0728753782        5.9591306732       -2.0054700713
 O       -11.9461097255        6.6917787358       -1.0870622321
 C       -12.6915822859        4.5889957920       -1.9206392072
 C       -13.6707431648        4.5195941113       -0.6791203911
 C       -14.2421476524        3.1190854903       -0.5828637620
 O       -14.2328168326        2.2939288095       -1.4972411923
 C       -14.7429154940        2.6733700847        0.8646768940
 C       -13.5515233180        1.7555102328        1.3787941559
 O       -12.7739393465        2.2913825572        2.1585047235
 C       -13.3205210170        0.3318102269        0.8583429430
 C       -12.0963707916       -0.3548593955        1.4101907826
 C       -10.8555590655        0.1350768565        0.7166528110
 O       -10.8676498815        1.0848500862       -0.0317965643
 C        -9.6451315181       -0.8424504911        0.8029670619
 C        -9.3877473384       -1.2129656776        2.3283840969
 O        -9.5787471997       -0.2972561225        3.0849903407
 C        -9.0453103185       -2.6239801102        2.7180619478
 C        -9.9576072144       -2.0348195777       -0.1519929938
 C        -8.4075758972       -0.0748055119        0.1947377187
 C       -15.0153424185        3.7994375310        1.8943715102
 C       -16.0218690851        1.7667837979        0.6810436394
 C       -10.8517653913        7.6636226434       -3.4783989951
 C       -12.8575521377        6.5097295990       -4.3336675456
 C        -5.5521041523        6.4010822429       -6.3212104130
 C        -6.2299770676        3.9631212191       -6.3511265597
 C        -6.7319366034        5.8272528199        0.8745114258
 C        -5.9385462283        3.4961038607        1.2878857206
 C       -11.7426157375        5.1487293056        5.7661795895
 C        -9.5363721878        5.2599874542        6.8791683247
 H        -9.8182566070        2.9026071546        8.0449729874
 H       -10.6781952133        1.3024266360        7.6064054276
 H       -11.4784603834        2.8048689541        7.9742558732
 H       -11.1023730818        5.6020908729        3.2495966068
 H       -10.9565036753        3.9520050498        2.9305013230
 H        -8.8334991506        6.0436950727        2.2425670138
 H        -9.9197042249        5.4501339872        1.1276080471
 H        -5.7778863423        3.1097709360       -1.8260363883
 H        -5.7422295435        4.9284045052       -1.6730922409
 H        -8.0373061540        4.4208816410       -3.2489022989
 H        -6.8810782880        3.2351218188       -3.8611183495
 H        -8.9345675904        3.7917422956       -5.2288949581
 H        -9.1904552591        4.2371971346       -7.0035569707
 H       -11.2514850028        4.9068800523       -6.1428774048
 H       -10.3423156610        6.3506094963       -5.8935075503
 H       -11.8645057729        3.8461464334       -1.8692625600
 H       -13.2914339694        4.2971234958       -2.7817003712
 H       -14.4295149729        5.2892294074       -0.8245912476
 H       -13.1601715516        4.8613866603        0.2527555910
 H       -13.3882149653        0.4353025493       -0.2363389307
 H       -14.2346403485       -0.1087923124        1.1637052881
 H       -12.1892726252       -1.4927938896        1.2762495823
 H       -12.0566321897       -0.2841003043        2.5258923096
 H        -9.7892156350       -3.1491987009        2.2476314842
 H        -8.9691222912       -2.8422702714        3.8060782023
 H        -8.0576792298       -2.8408701635        2.2646450758
 H        -9.9970157139       -1.6006776713       -1.1633212751
 H       -10.9022498828       -2.5225559453        0.1566058558
 H        -9.1486144980       -2.7973715526       -0.1366853306
 H        -8.4762678184        0.0775196407       -0.8596303608
 H        -7.4634782117       -0.5240100734        0.5207876697
 H        -8.3295404610        0.9530020086        0.6440257460
 H       -14.1546206377        4.3987391562        2.0399178199
 H       -15.3550197507        3.3979289978        2.8921575132
 H       -15.8959212269        4.4048096111        1.6395927741
 H       -15.9168601729        1.0506232257       -0.1166967647
 H       -16.8495996280        2.4153495440        0.5005854501
 H       -16.2334185962        1.1229022465        1.6134373429
 H       -11.5506163150        8.4452665844       -3.1293710094
 H       -10.5187628757        7.9398760809       -4.5096461416
 H        -9.9529389147        7.6707844971       -2.9252712377
 H       -13.4076778572        5.5589525456       -4.4721275645
 H       -12.4895793262        6.7918006440       -5.3725744697
 H       -13.4068621063        7.3507310346       -3.8947597776
 H        -4.4876069869        6.2879211393       -6.1389014213
 H        -5.9608615037        7.3884337092       -6.0050502098
 H        -5.7638167327        6.4153347553       -7.4360278412
 H        -7.0148450149        3.3098944098       -6.1058657205
 H        -5.3210193203        3.4763070613       -5.8528227227
 H        -6.0706454641        4.0717072934       -7.3764714067
 H        -6.6550959758        6.1156294559        1.9132298844
 H        -7.3746322405        6.5352854325        0.4149809103
 H        -5.6973254235        5.9551998834        0.4209400715
 H        -5.1827984314        3.5947690529        0.5067093906
 H        -6.1581387523        2.4897631983        1.4743972282
 H        -5.6422660924        3.8480257536        2.2517433726
 H       -12.4866788513        4.6287892966        5.1751948114
 H       -11.4775865718        6.1935602362        5.4089077513
 H       -12.0914388661        5.2329006157        6.8110029558
 H        -8.5584655198        4.7954272968        7.0155156331
 H       -10.0020865007        5.1783731601        7.8681454541
 H        -9.2800349785        6.3215876610        6.5624954679
 Na      -10.5051984472        1.8725995469        2.8453452716
