117

 C       -10.3721693103        2.0932042879        7.3644433867
 C       -10.3492610666        2.6765381560        5.8938917501
 O       -10.4859847099        1.8590126263        4.9717255694
 C       -10.3347128057        4.2318432402        5.7072986928
 C        -9.3897928244        4.6907005379        4.4723318561
 O        -8.2201353031        4.7991526325        4.6244056806
 C       -10.1323220799        5.0795859899        3.0993381429
 C        -9.1504694444        5.2925509906        1.9199802113
 C        -8.3341779315        4.0918892024        1.6949322354
 O        -8.6206383652        2.9737666538        2.1061968098
 C        -7.0101114965        4.2276638981        0.8548215581
 C        -7.4345530434        3.9210922302       -0.7329360772
 O        -8.4851416132        3.4385939042       -0.9955172730
 C        -6.2996534798        4.1676640189       -1.7528049858
 C        -6.8403663620        4.0995733899       -3.2286659312
 C        -6.0436786072        5.1759932445       -4.0954467963
 O        -5.1297067208        5.7491808390       -3.5583533231
 C        -6.4451461887        5.4441323857       -5.5669074633
 C        -7.9565066274        5.8936079705       -5.6129605935
 O        -8.2220348852        7.0236773664       -5.3348511309
 C        -9.0302601653        4.9538041413       -5.9481403317
 C       -10.3916268548        5.5721138287       -5.5775691886
 C       -10.5556106559        5.6524854015       -4.0339322239
 O        -9.8320938881        5.0008720160       -3.3271514662
 C       -11.5850664911        6.5980082352       -3.4487057471
 C       -11.9795771225        6.0202573183       -2.0107378592
 O       -11.7473773863        6.6111673422       -0.9639438729
 C       -12.7390068853        4.6199110033       -1.9771506836
 C       -13.4628338866        4.3336066698       -0.6602483880
 C       -14.2265227074        3.0688814052       -0.6275877300
 O       -14.5263275959        2.4298477445       -1.5775709893
 C       -14.7765232927        2.6686094494        0.9199737145
 C       -13.6194210600        1.6987367560        1.4465240879
 O       -12.7899604287        2.1148481004        2.2510759520
 C       -13.6490683415        0.2535282427        0.7836101722
 C       -12.3778744504       -0.7325119546        0.7467977856
 C       -11.1101821812       -0.0249799093        0.5482730799
 O       -11.0034059676        1.1665543433        0.4208872199
 C        -9.7538656272       -0.9509450206        0.5877594022
 C        -9.6905986405       -1.3540628188        2.0807279279
 O        -9.9108850556       -0.5432550774        2.9734922207
 C        -9.4652013233       -2.8424073530        2.4235100682
 C        -9.8486805822       -2.1331492958       -0.3947551357
 C        -8.5840455508        0.0620149004        0.3444257270
 C       -14.8580649034        3.9655123996        1.7595614364
 C       -16.1502199073        2.0584827932        0.8453938482
 C       -10.9817268082        7.9963109917       -3.4593767628
 C       -12.9002032281        6.5974985916       -4.2452862696
 C        -5.5939691661        6.5639046718       -6.1028755245
 C        -6.0858687914        4.2102834950       -6.3997000114
 C        -6.3244334214        5.5887509982        0.9303475463
 C        -6.1637765985        3.0033832699        1.2092958170
 C       -11.8118418561        4.6378945749        5.4334421240
 C        -9.8023716614        5.0083784438        6.9180595262
 H        -9.3875896956        1.8352668141        7.8240950501
 H       -10.9187956608        1.1568621283        7.3454828467
 H       -10.9159696503        2.7352369975        8.0742577921
 H       -10.8451112277        5.9183595406        3.1764302273
 H       -10.8655289360        4.3043034310        2.8239263950
 H        -8.5177225772        6.1654495585        1.9942520213
 H        -9.7181706288        5.4111094493        1.0051339654
 H        -5.5370014942        3.4314186167       -1.5599239599
 H        -5.9507736941        5.1652036875       -1.4569177961
 H        -7.9347345175        4.2214803886       -3.2569667876
 H        -6.6498157696        3.1565479815       -3.6398489631
 H        -8.8778414027        3.9989332724       -5.4427463211
 H        -8.9031109625        4.7389464941       -7.0727474038
 H       -11.1822116263        4.9820133031       -5.9523681585
 H       -10.4851707534        6.5455783696       -6.0671805722
 H       -12.0749117808        3.7885136481       -2.1668892025
 H       -13.5097390822        4.4380576867       -2.7473930820
 H       -14.1401934098        5.1631010173       -0.6442036284
 H       -12.8443958034        4.3754492841        0.2664857281
 H       -13.8858199184        0.5255393118       -0.2397359238
 H       -14.5134425270       -0.2612697849        1.2207117999
 H       -12.6436165871       -1.4054971553       -0.1212150574
 H       -12.2340063137       -1.3595984715        1.6818413601
 H       -10.4692380798       -3.3258551497        2.6356317107
 H        -9.0011345354       -2.8010120846        3.3683627592
 H        -8.8624985093       -3.4056855670        1.7291576767
 H        -9.8766036426       -1.7686266754       -1.4487050196
 H       -10.7366221537       -2.7167807334       -0.1369169589
 H        -8.9543036873       -2.8244010745       -0.4203792673
 H        -8.6483676191        0.6524699518       -0.5645184875
 H        -7.7047544729       -0.5810113875        0.1197069242
 H        -8.3408304452        0.6078003738        1.2161167437
 H       -13.8063156990        4.4235620830        1.7881206982
 H       -15.2004756127        3.7723466330        2.7747999415
 H       -15.4918610793        4.7298813705        1.3614981905
 H       -16.0942608210        1.0437952661        0.3872913692
 H       -16.8558947368        2.6607360223        0.2251582748
 H       -16.6182682525        1.9025779399        1.7879040505
 H       -11.6768036927        8.8148253833       -3.2309275308
 H       -10.4324788373        8.1900944837       -4.3765343050
 H       -10.3139594475        7.9625191600       -2.5696228555
 H       -13.1771654202        5.5158135461       -4.2351798186
 H       -12.6781945555        6.8783335041       -5.2669683017
 H       -13.6209349544        7.3424218558       -3.9053555547
 H        -4.4853900647        6.3389278173       -5.9672235410
 H        -5.8617587386        7.5842770664       -5.7655790968
 H        -5.7659574271        6.6510001630       -7.1606718365
 H        -6.6605951463        3.2931771878       -6.1575115537
 H        -5.1211423306        4.0812957983       -6.1250633563
 H        -6.0895214335        4.3914223346       -7.4966971448
 H        -6.3208227235        5.8397228214        2.0000119686
 H        -6.8329590905        6.3975780856        0.3426456311
 H        -5.3298653806        5.5603337774        0.5821684446
 H        -5.3035818979        2.9269645947        0.6245678498
 H        -6.7685988957        2.1082120089        1.0194040701
 H        -5.8407692580        3.0663693695        2.2212445042
 H       -12.1204901797        4.2851203675        4.4284609595
 H       -11.9580840643        5.7025972430        5.6103718166
 H       -12.4037641750        4.0567765740        6.2149007336
 H        -8.6978118739        5.0305148727        7.0174441061
 H       -10.1636978455        4.5646678954        7.8711055065
 H       -10.1086789299        6.0190061625        6.8360783110
 Na      -10.4903001298        1.9063489809        2.7498447252
