117

 C       -10.5950730165        2.5917423606        7.6346237115
 C       -10.5341929658        3.1351008641        6.1228351775
 O       -10.6496354866        2.3314544482        5.1696013666
 C       -10.2642658889        4.6279488687        5.8091186327
 C        -9.4591027696        4.7055163880        4.4037874828
 O        -8.2703849481        4.4933572207        4.3219391363
 C       -10.2992763782        4.9904685278        3.1120338499
 C        -9.5402569862        5.0418976068        1.7667777519
 C        -8.4733989552        4.0093742180        1.4777472069
 O        -8.6037939591        2.7974393025        1.7299931872
 C        -7.1416033680        4.3817988481        0.7453699151
 C        -7.3341626571        3.7718471988       -0.7196136251
 O        -8.3912197345        3.2612754245       -1.0443573279
 C        -6.3333517213        4.1882343881       -1.8173491851
 C        -7.0619639238        4.2841520952       -3.1645856388
 C        -6.2595411266        5.2563313747       -4.1384299454
 O        -5.5140058941        6.0979708082       -3.6607093335
 C        -6.4934830546        5.2299436599       -5.6874571108
 C        -8.0339627305        5.6771278623       -5.9318753878
 O        -8.2323918569        6.8740401384       -6.0222805527
 C        -9.2271232525        4.6198778130       -6.2185215525
 C       -10.5974859660        5.1043237676       -5.6377200342
 C       -10.6899089693        5.2206902933       -4.0927412283
 O       -10.2742609272        4.3077567620       -3.4054213646
 C       -11.5254415607        6.3446240488       -3.5088229023
 C       -12.0893558479        6.0010698904       -2.1051058326
 O       -11.9637865496        6.8189983654       -1.1834069504
 C       -12.7285488995        4.6555416691       -1.8677289909
 C       -13.6860196447        4.4381416609       -0.6456809072
 C       -14.1950856830        3.0346292465       -0.4800119982
 O       -14.3672709499        2.2645536918       -1.4170996180
 C       -14.7122464557        2.5743765387        0.9458498877
 C       -13.5292683862        1.8063976769        1.5707153857
 O       -12.8301049226        2.3539921889        2.4174950735
 C       -13.3133285589        0.3151002274        1.1168660131
 C       -12.0594814413       -0.3478166170        1.5043119928
 C       -10.8527300870        0.0145407271        0.6737160977
 O       -10.8595799288        1.0255447852       -0.0063104563
 C        -9.5265003586       -0.9352944329        0.7597173229
 C        -9.2549884986       -1.1844940736        2.2770237027
 O        -9.5905330634       -0.3105116995        3.1030842797
 C        -8.6503651359       -2.5566670164        2.7385706176
 C        -9.6328040546       -2.2468028088       -0.0335005908
 C        -8.3532327892       -0.1735113766        0.2255416776
 C       -15.1488798776        3.7823300067        1.7594052262
 C       -16.0250282952        1.7220412866        0.6897269101
 C       -10.6601348047        7.6927027629       -3.5274004432
 C       -12.8304418935        6.5362380400       -4.4406874117
 C        -5.5922690633        6.2911942900       -6.4469523771
 C        -6.1997731488        3.7436372228       -6.2563189735
 C        -6.8745588908        5.8852258189        0.6075898382
 C        -6.0042221969        3.6741862503        1.4939835692
 C       -11.7244600210        5.2273913352        5.7978849039
 C        -9.4730158093        5.2936054399        6.9172057754
 H        -9.6960306120        2.6290837739        8.1513834542
 H       -11.0090222242        1.5125397665        7.4778524722
 H       -11.3256543646        3.0033534428        8.3153337841
 H       -10.8207263306        5.9738128796        3.1230527509
 H       -11.0317047772        4.1831148066        3.0063882951
 H        -9.1061012711        6.0434073571        1.5931079955
 H       -10.2330546923        5.0094974146        0.8833591194
 H        -5.4701916009        3.5484065350       -1.8937113036
 H        -6.0410477581        5.1951092876       -1.5781524917
 H        -8.0718177125        4.6703896816       -2.9970064431
 H        -7.0638871305        3.2981282956       -3.6756385497
 H        -9.0017976290        3.7067686495       -5.7478662029
 H        -9.3588167024        4.5227181274       -7.2799557941
 H       -11.3988194099        4.4193568638       -6.0260493398
 H       -10.8202987536        6.0801497538       -6.0916611884
 H       -11.8323111180        3.9938432379       -1.8619831573
 H       -13.3614284320        4.3877476861       -2.7312131866
 H       -14.5590180212        5.1500553355       -0.6951432926
 H       -13.1487344791        4.8666091488        0.2263740015
 H       -13.3980855231        0.2946849646        0.0386188731
 H       -14.2517395061       -0.1762609728        1.4871011771
 H       -12.2035994115       -1.3877921337        1.3359116569
 H       -11.8503082795       -0.3463503936        2.5632891778
 H        -9.4349641137       -3.4064073665        2.7294716910
 H        -8.3346424130       -2.3380844532        3.7390644582
 H        -7.7215960315       -2.7945184519        2.2327065692
 H       -10.0167810979       -2.0759388465       -1.0635418347
 H       -10.3280612554       -2.8669862157        0.5311931105
 H        -8.6732042696       -2.7812190586        0.0341942860
 H        -8.6404484594        0.4911856648       -0.5940976005
 H        -7.4597141266       -0.7512066249        0.0363985645
 H        -7.9929682600        0.5324020381        0.9217372306
 H       -14.2975311589        4.5249189801        1.9013946959
 H       -15.3972765600        3.5125881242        2.7665986266
 H       -16.0369818860        4.2481220905        1.3621984558
 H       -15.8983246071        0.7757297380        0.1382491302
 H       -16.8041481176        2.3140790280        0.1678253773
 H       -16.3389332832        1.4745818279        1.6505683870
 H       -11.1702833659        8.6448384959       -3.7266816579
 H        -9.8733055674        7.5686896098       -4.2684513202
 H       -10.0056076900        7.7149586145       -2.6362708518
 H       -13.3657723652        5.5750190303       -4.4236553192
 H       -12.5260671386        6.7073875496       -5.4284173329
 H       -13.4459365694        7.3015426960       -3.9770785324
 H        -4.5445108823        6.0765166534       -6.1668882831
 H        -5.8613549462        7.2727982307       -6.0748755321
 H        -5.6575521243        6.2240327197       -7.4705163812
 H        -7.1583362828        3.1519157881       -6.1441351731
 H        -5.4287633247        3.2242718772       -5.7993967765
 H        -5.9601380357        3.8907768744       -7.3623131764
 H        -6.8707460676        6.3456578555        1.6141066633
 H        -7.6635806390        6.4334924032        0.0271299976
 H        -5.9238527179        6.1207612959        0.2413528861
 H        -5.0344284401        3.8831603916        1.1474182351
 H        -6.2492531692        2.5920305178        1.5077782725
 H        -6.1077778949        3.9435631438        2.5266109115
 H       -12.2195668175        4.9109429143        4.8733524252
 H       -11.8166799204        6.2472428447        6.0430422725
 H       -12.1813069632        4.5885158468        6.5585863292
 H        -8.4271545120        5.1141393833        6.8605549914
 H        -9.8039307261        4.8650267547        7.8627881364
 H        -9.6773589446        6.2982860434        7.0503334571
 Na      -10.4876818713        1.8994263963        2.9624236833
