117

 C       -14.8445242575        7.4279410363       -0.6782878298
 C       -13.7523011107        6.8029204989        0.1379255726
 O       -13.6150522119        5.5408491408        0.2242716926
 C       -12.5436061055        7.5605650860        0.7995491343
 C       -12.5449324667        7.0268041337        2.3048468249
 O       -11.5926822769        6.3266443425        2.6283646476
 C       -13.6615440879        7.6365546591        3.1867042319
 C       -13.5105971858        7.0711690302        4.5842739994
 C       -14.6393035532        5.9853521601        4.9439210872
 O       -15.7935017808        6.1382329119        4.7037704079
 C       -14.4392629659        4.4669827114        5.6791888080
 C       -14.1105447156        3.8298170657        4.3460031965
 O       -13.0751378206        4.0200309530        3.7231032825
 C       -15.3530175514        3.0703079580        3.5300958594
 C       -14.7436962432        1.6880314461        2.9223605616
 C       -14.1341897043        1.7310975711        1.4549733739
 O       -14.4603593299        2.6999317169        0.7639500219
 C       -13.2055005975        0.5981081171        1.0290431775
 C       -11.9521218864        0.4060114838        1.9796024203
 O       -11.9229917568        0.3453250641        3.1930380610
 C       -10.5434818301        0.4376749477        1.1688012124
 C        -9.5243963884        1.0798940676        2.0623663543
 C        -9.1504585037        2.6716561091        2.1412560222
 O       -10.0386653334        3.5103576447        2.1493015872
 C        -7.6323006932        3.0638178268        2.2002022312
 C        -6.9187650155        2.6786078161        0.8239736908
 O        -6.8617690352        3.5583461934       -0.0139210775
 C        -6.1835981001        1.3631099372        0.6056566635
 C        -5.7667586370        1.0514599106       -0.8866634849
 C        -6.7345829426        1.6435123528       -1.9534904031
 O        -7.9531844746        1.4710614673       -1.7262824462
 C        -6.2147139062        2.3315517578       -3.1879180064
 C        -5.2745767898        1.1685108776       -4.1397481407
 O        -4.8965113439        0.2742356201       -3.3722718221
 C        -4.8016730581        1.1563990787       -5.6047037864
 C        -3.7415545404        2.1970323850       -5.6984725392
 C        -3.3534800885        2.4416296534       -7.1913976058
 O        -2.9825109090        1.5205100309       -7.8747117664
 C        -4.0485574688        3.6499343383       -7.8966629290
 C        -5.5827447683        3.4680864184       -8.0489311535
 O        -6.2357783166        2.4513968719       -7.8308268420
 C        -6.2500404890        4.6285588688       -8.7003362450
 C        -3.8010003690        4.9394179506       -7.0736440180
 C        -3.3170052267        3.8147612636       -9.2771183074
 C        -7.4739790798        2.9267078220       -3.7918304964
 C        -5.2863603472        3.4966894721       -2.5696075297
 C        -7.7301506805        4.6298087214        2.1605596804
 C        -6.9608703572        2.4458508671        3.4320244816
 C       -13.9204292343       -0.9137366251        1.2678616564
 C       -12.9722199558        1.0234391673       -0.5423046035
 C       -13.2119707709        4.3125075037        6.6087714029
 C       -15.8976789301        4.0857050772        6.4202082600
 C       -11.0934207552        7.2441216481        0.0671859234
 C       -12.8476348770        9.0559623451        0.7942031982
 H       -14.4915152165        7.2076379182       -1.7797354530
 H       -14.7698047303        8.4874603174       -0.4408930996
 H       -15.8949176836        7.0347319621       -0.5202068397
 H       -14.6264668143        7.4085576261        2.7509658241
 H       -13.5744828326        8.7560651606        3.2690609954
 H       -13.5589547715        7.7895764371        5.3245625675
 H       -12.5537882409        6.5352805876        4.7571476116
 H       -15.7820349575        3.6468142229        2.7685915403
 H       -16.2497158322        2.7297460425        4.0659569598
 H       -15.5792968846        0.9895450074        3.1084708728
 H       -13.9612114153        1.2874703603        3.6259157869
 H       -10.5846703156        0.9636080225        0.2901822678
 H       -10.2234664202       -0.6079775200        0.9214402335
 H        -8.5140215785        0.7137239152        1.9131694797
 H        -9.8992588005        0.8050602964        3.0926626090
 H        -6.8393112341        0.5118033090        0.7315788716
 H        -5.2178480243        1.3619479074        1.2135399346
 H        -5.8247602739       -0.0411975745       -1.1527912763
 H        -4.8587310914        1.5183025904       -1.1616370256
 H        -5.5322036033        1.3999246637       -6.3678674647
 H        -4.2865397246        0.1722452842       -5.5101309195
 H        -2.9269443768        1.8573692225       -5.0196993785
 H        -4.2176355063        3.1386364991       -5.4207609344
 H        -6.3530713842        5.5355778729       -7.9638740602
 H        -7.1948681758        4.2402100983       -8.9120690573
 H        -5.7716326114        4.9390050287       -9.6133918920
 H        -3.2214957957        5.7564796217       -7.5698315733
 H        -3.0206893281        4.5971751874       -6.2995695410
 H        -4.5533060257        5.4477941665       -6.4956884156
 H        -3.0729944099        2.8699458029       -9.7814776615
 H        -2.4440475296        4.3284043308       -9.1706034444
 H        -3.8189092096        4.4880754261       -9.9903232959
 H        -7.6882599718        3.4718922548       -2.9192064421
 H        -8.2219850914        2.2439337324       -4.3494570625
 H        -7.2174331589        3.6110636122       -4.5401497469
 H        -4.4251527008        3.0427460141       -2.0695551316
 H        -5.9262958158        4.1626876189       -1.9703333307
 H        -4.8860160939        4.0094286863       -3.3959292155
 H        -6.8215081540        5.0454697552        1.9528078504
 H        -7.9437977167        4.9164716046        3.1976701833
 H        -8.4557047238        4.9597372000        1.4125344821
 H        -7.3189080829        3.0669584430        4.3044478006
 H        -5.8407093593        2.5803167320        3.1496418044
 H        -7.2786833882        1.4134987480        3.5223789164
 H       -14.8636628905       -1.0657577474        0.7856050578
 H       -13.8277746136       -1.0701317288        2.3521764559
 H       -13.3101444039       -1.7527065658        0.9511073747
 H       -12.1554360465        0.4045737689       -0.9572435001
 H       -12.4348535938        2.0221371607       -0.6844459494
 H       -13.7366365120        1.0098472225       -1.2967283362
 H       -13.2658084546        3.2803967700        6.9292219846
 H       -13.3644778322        4.9437289214        7.4645660187
 H       -12.2527980508        4.5066652956        6.2086246020
 H       -16.2012567578        4.8000367595        7.1682080717
 H       -15.6902605836        3.0992464426        6.7738090020
 H       -16.6063565232        4.2470895231        5.5804274880
 H       -11.1166389143        6.4314843674       -0.7051035778
 H       -10.2654119868        7.0621746941        0.8252638641
 H       -10.8245946455        8.1523503002       -0.4545928004
 H       -12.0420456778        9.7425031899        1.0948860593
 H       -13.7986391089        9.2854936674        1.2844342170
 H       -12.9257078464        9.1487003942       -0.2392384467
 Na      -12.3152225756        4.1518088560        1.5100984076
