117

 C       -10.7652832194        3.1000564987        7.4478497751
 C       -10.5013547465        3.4086191660        5.9553688237
 O       -10.7511038402        2.5908274261        5.1266465399
 C       -10.1519994950        4.8795807629        5.6003465482
 C        -9.6301056748        5.0184306289        4.1014669352
 O        -8.4762230107        5.3269347641        3.7953040715
 C       -10.6813710249        5.0056997619        2.9281041430
 C       -10.0125700601        4.9901465194        1.5301871285
 C        -8.7521006260        4.0999116054        1.4129479491
 O        -8.7850816346        2.9201008119        1.6488871137
 C        -7.3898655979        4.6133939452        0.8291816075
 C        -7.3784405876        4.0175760909       -0.6334103361
 O        -7.6376182376        2.8651925431       -0.7784415700
 C        -7.0093385688        4.9780235042       -1.7388247209
 C        -6.9541235746        4.2177722550       -3.0846307972
 C        -6.2907890205        5.1665911199       -4.1416677343
 O        -5.6463040363        6.1427557907       -3.9373575579
 C        -6.7571160179        4.8637876138       -5.6749899547
 C        -8.2102233085        5.3667882140       -5.9816274952
 O        -8.4695626652        6.5288005852       -5.8255718253
 C        -9.3593887523        4.3838273995       -6.3266641001
 C       -10.7232033750        4.9553401116       -5.9294603851
 C       -10.8462520107        4.9477866444       -4.4114123038
 O       -10.3095528031        4.1034716994       -3.6886582606
 C       -11.6648852477        6.1286146483       -3.7708022444
 C       -12.2134936989        5.7689596801       -2.3157300941
 O       -11.8891104401        6.3833544404       -1.3459436702
 C       -13.1417103355        4.4972767231       -2.2820217649
 C       -13.2565302717        4.1105676475       -0.7153158221
 C       -13.9836102680        2.7905425551       -0.4522725307
 O       -14.3515671033        2.0700527228       -1.3217078693
 C       -14.4153328403        2.5456897349        1.0481374936
 C       -13.3370766587        1.6041879167        1.7675885791
 O       -12.6324061781        2.0738192565        2.6255479557
 C       -13.3028578582        0.1563835584        1.3634392731
 C       -12.0970675459       -0.8096070278        1.4923871943
 C       -10.7564208827       -0.0915153635        1.0721043608
 O       -10.8002527651        0.9930080424        0.5293680435
 C        -9.3966103788       -0.8490488166        1.0821839202
 C        -8.7785036921       -0.7520863813        2.5272034378
 O        -9.2687308306       -0.0095518227        3.3223780776
 C        -7.6601285635       -1.7609872553        2.9911444744
 C        -9.6781979548       -2.3217257220        0.6242028841
 C        -8.3948525459       -0.1771958119        0.0637641580
 C       -14.5426662830        3.7887869788        1.8607174347
 C       -15.8132365395        1.8702254204        1.0149126279
 C       -10.6196319002        7.2962808256       -3.6208808997
 C       -12.9621834029        6.5120909608       -4.5235287162
 C        -5.7644469003        5.6458343262       -6.7129217460
 C        -6.5811777822        3.3834923014       -6.1059824252
 C        -7.2586829345        6.1363473519        0.9542162480
 C        -6.3339525287        3.8233540271        1.6460661427
 C       -11.3598044596        5.8111195469        5.8248093284
 C        -9.0485641287        5.4509855135        6.5676276458
 H        -9.9138271679        2.8116419768        8.0448126045
 H       -11.3849682062        2.2837123718        7.4907824428
 H       -11.3347364859        3.9856143088        7.8913598522
 H       -11.2372683949        5.9164953381        2.8533976556
 H       -11.4035726154        4.2140926941        2.9615705429
 H        -9.7603435408        6.0170136746        1.3528657435
 H       -10.6685225287        4.6264739439        0.7322944331
 H        -6.0820085193        5.4634773410       -1.4472913805
 H        -7.7305857355        5.8304867068       -1.7063399982
 H        -7.9485330243        3.8848330709       -3.3933716032
 H        -6.3526983249        3.3173433019       -2.9858739033
 H        -9.1878131798        3.4035836310       -5.9055108736
 H        -9.3918965362        4.2151687762       -7.4643459205
 H       -11.4418127931        4.3239942684       -6.4126108850
 H       -10.8377872057        5.9452382554       -6.3837357753
 H       -12.8179576601        3.5788736956       -2.7696557177
 H       -14.0939632435        4.7924518113       -2.7101058730
 H       -13.8873364568        4.8409260212       -0.2031798075
 H       -12.2600801930        4.0923631493       -0.2248493108
 H       -13.4869579667        0.2573970567        0.3185254488
 H       -14.2180721495       -0.2409948554        1.8076884431
 H       -12.3752333587       -1.7605667078        0.9458143800
 H       -12.0207698616       -1.1724102351        2.5727138550
 H        -8.1092627689       -2.6727526427        3.2439806485
 H        -7.0981753099       -1.3977334529        3.8663217777
 H        -7.0795409066       -1.9507586129        2.1009063203
 H       -10.1403348313       -2.2256156898       -0.3484462867
 H       -10.3948384272       -2.6562226954        1.2901168440
 H        -8.7092525422       -2.8505219188        0.5348035300
 H        -8.8026720200       -0.1246776691       -0.9165094188
 H        -7.4212919875       -0.6476968430       -0.1873793793
 H        -8.1753500800        0.8670350480        0.3443961918
 H       -13.5036600373        4.0920471068        2.1690972656
 H       -15.1199548750        3.5319419428        2.7680860265
 H       -14.9488061146        4.6370063252        1.3682030545
 H       -15.7954574723        0.9247370467        0.4808943469
 H       -16.5747658835        2.5438871584        0.6277500705
 H       -16.1524172325        1.7488225980        2.0805589374
 H       -10.9955965392        8.1415288657       -3.0396529696
 H       -10.2454832560        7.6815899743       -4.5934600765
 H        -9.8234391476        7.0039693470       -3.0507571286
 H       -13.3141667426        5.5081363817       -4.9317415617
 H       -12.8650501167        7.2429125090       -5.3765124974
 H       -13.6785709289        6.9954149123       -3.8725327954
 H        -4.7515787113        5.3169932073       -6.3950690904
 H        -5.8236997970        6.7290484649       -6.4351359178
 H        -6.0133240004        5.4547296099       -7.7652802693
 H        -7.1232503146        2.7011654630       -5.4839833755
 H        -5.5672991206        2.9974144318       -6.2515107012
 H        -7.1364870119        3.2724873886       -7.0190233442
 H        -7.3665802798        6.4318943446        1.9770494461
 H        -7.9758223206        6.7298634268        0.3866714625
 H        -6.3089525323        6.5041079606        0.6028762911
 H        -5.2440746983        4.0710390132        1.5348022326
 H        -6.5182571024        2.7624882584        1.3976831914
 H        -6.5845854989        4.0934638500        2.6889904018
 H       -12.2071680205        5.4909026548        5.2800413608
 H       -11.1058778140        6.8642105811        5.5729438572
 H       -11.6044218671        5.7743182147        6.9360751883
 H        -8.0813228619        4.9663990253        6.4217833543
 H        -9.4307583136        5.1974647908        7.6137719911
 H        -8.8570207349        6.5662074985        6.4154797032
 Na      -10.3937233042        1.9270917976        2.9186475004
