117

 C       -14.9717615511        7.4887700868       -0.8544727414
 C       -13.9732366343        6.6851287727        0.2642421497
 O       -13.9939344411        5.5045628199        0.3661658860
 C       -12.6905330934        7.4911032830        0.8389516220
 C       -12.5026348394        6.9966551731        2.2746851834
 O       -11.4702574625        6.4205487432        2.5770217711
 C       -13.6502456144        7.4327427593        3.3204531145
 C       -13.4563640326        6.8794082019        4.6616562688
 C       -14.8752532079        6.1839043805        4.9907959373
 O       -15.9477814120        6.7258189750        4.8844522229
 C       -14.5281762957        4.6971591013        5.6622778907
 C       -14.0994880733        3.9821477901        4.2496911149
 O       -13.0260567280        4.2498855554        3.6429787426
 C       -15.0936838370        3.2237298429        3.4674206339
 C       -14.5406514156        1.8597262480        3.1088472069
 C       -14.0958911480        1.9057446597        1.6792543958
 O       -14.6722624633        2.6503449473        0.8756273826
 C       -13.2532694346        0.6585749204        1.0820757144
 C       -11.8791290139        0.6513972394        1.9470843277
 O       -12.0383304244        0.4586505519        3.1648413517
 C       -10.5119816754        0.7190420285        1.2373943633
 C        -9.3877562495        1.1869089580        2.2890776338
 C        -9.0587326041        2.6856211846        2.1604645622
 O       -10.0079890298        3.4155278921        1.8533899188
 C        -7.5402934135        3.0391688325        2.2435604789
 C        -6.7942218811        2.7045122221        0.8558258880
 O        -6.7190909076        3.5576035216        0.0330973569
 C        -6.5534374915        1.2821435575        0.5140392040
 C        -6.0777262083        1.0004099264       -0.8588974975
 C        -6.9146124635        1.7697971585       -1.8182449530
 O        -8.0982303589        1.9084425960       -1.7130218785
 C        -6.1583129124        2.2523083096       -3.2639497213
 C        -5.2967842176        0.9947357511       -3.7027578274
 O        -5.0912735833        0.0431194892       -3.0011856836
 C        -4.9961942874        0.9903446150       -5.3134151668
 C        -3.9172932193        2.1571904561       -5.6937655570
 C        -3.3692088115        2.1772349785       -7.2363859644
 O        -2.8112250142        1.2152673483       -7.7556989817
 C        -3.8521244531        3.6064034212       -8.0242652107
 C        -5.3127093705        3.2962288091       -8.2983518764
 O        -5.7490414272        2.1973889631       -8.1286886416
 C        -6.2914542959        4.2065701814       -9.0165827218
 C        -3.7279707340        4.8330057260       -7.0333639809
 C        -3.0396143691        3.8012265628       -9.3195120940
 C        -7.2555040988        2.8206216434       -4.3390321010
 C        -5.1249293130        3.2759467826       -3.0765774283
 C        -7.2516696637        4.5364157488        2.7672539356
 C        -6.7816042834        2.1838081766        3.2984946289
 C       -14.1903415336       -0.5961351777        1.3389300551
 C       -13.0520775923        0.6539048673       -0.4560843443
 C       -13.3094748089        4.9175075855        6.6061772777
 C       -15.6904509845        3.9557307975        6.3464079999
 C       -11.5437833200        7.1665265390       -0.1689937217
 C       -12.9041418555        9.0848594331        0.7907948002
 H       -14.3784840784        8.0933080093       -1.4625091957
 H       -15.7865358324        8.0971582476       -0.4413286776
 H       -15.3994441527        6.6927645560       -1.4795109954
 H       -14.6143344759        7.0728269078        2.8264144779
 H       -13.6743555678        8.5047735512        3.3261355460
 H       -13.1216907587        7.5417997380        5.5548727094
 H       -12.6611279309        6.1087893450        4.5657481096
 H       -15.2223343728        3.7368332389        2.4305611001
 H       -16.1014962094        3.3128053051        3.8943710727
 H       -15.2838894728        1.0318765831        3.1360086731
 H       -13.7170089944        1.5077429299        3.7377480634
 H       -10.4546997057        1.3671241806        0.2706363014
 H       -10.3708231023       -0.3217540350        0.9613773791
 H        -8.4275900439        0.5723617019        2.3139019376
 H        -9.7943858828        1.2426518301        3.2842530709
 H        -7.4358902547        0.6658485492        0.5881871396
 H        -5.7735957692        0.8928207069        1.0693916627
 H        -6.2323483467       -0.0342184682       -1.0358778778
 H        -4.9784484733        1.2657777395       -0.9814318086
 H        -5.9784838027        1.2496870354       -5.8082440069
 H        -4.5598582321        0.0386355496       -5.5340467986
 H        -3.0204259359        1.7666938671       -5.2739548087
 H        -4.1798337315        3.1735048884       -5.4032198343
 H        -6.7893357397        4.8890039251       -8.3824019119
 H        -6.9735617534        3.4647715631       -9.4991382416
 H        -5.8041546613        4.7931389991       -9.7721021159
 H        -3.1857970522        4.7077672177       -6.1162157529
 H        -4.6523064338        5.3053268957       -6.7071843433
 H        -3.1809055919        5.6984803291       -7.5360179730
 H        -3.2575264116        3.0306858769      -10.0686068993
 H        -1.9238230045        3.6840585863       -9.1361866739
 H        -2.9459221640        4.7622751131       -9.7903614185
 H        -7.6387822159        3.8054402686       -3.9490196979
 H        -7.9716553920        2.0561831653       -4.5655675261
 H        -6.6285885612        2.9989091584       -5.2914667327
 H        -4.1276396365        2.8543695290       -2.9400923623
 H        -5.5992625886        3.9019441122       -2.3521960699
 H        -4.9191286107        3.8306221618       -4.0114325506
 H        -6.2821313947        4.5467576088        3.3356530397
 H        -8.0165581141        4.8628385915        3.4614248857
 H        -7.0530716035        5.2884470508        1.9588842187
 H        -7.2417632835        2.4484378307        4.2225308245
 H        -5.7852294237        2.4336647866        3.2604046718
 H        -6.9630918867        1.1424919335        3.0159641676
 H       -15.0817985575       -0.5622556177        0.6706618308
 H       -14.4628017217       -0.7549711973        2.4162719680
 H       -13.6497646566       -1.4747203500        0.9612262457
 H       -12.6606003558       -0.2219085659       -0.9901673234
 H       -12.2830684541        1.3097750114       -0.8168300601
 H       -13.9492196844        1.1382874806       -0.9148585249
 H       -13.1917374709        4.1465999102        7.4157516115
 H       -13.2994865271        5.8880317081        7.1624616172
 H       -12.4783197437        4.8722187268        5.8132885176
 H       -15.7672612910        4.4654770451        7.2682058334
 H       -15.3244934318        2.9887960065        6.6158026918
 H       -16.5420547229        4.1829615818        5.7368032690
 H       -11.8168780981        6.2859671814       -0.7432850057
 H       -10.6290045521        6.9556075797        0.3412844858
 H       -11.3978647147        7.9594391559       -0.9142966659
 H       -12.4182723577        9.4849863691        1.6848683598
 H       -13.9613301641        9.3446474575        0.8666228983
 H       -12.4095841869        9.5679945415       -0.1057832190
 Na      -12.2891429415        4.2315204112        1.4619746388
