117

 C       -10.5944297335        4.0861772071        7.0334955637
 C       -10.3856025021        4.4703941610        5.5948161491
 O       -10.3297053210        3.5723067100        4.7926261007
 C       -10.1847839044        5.9700077836        5.2158107125
 C        -9.5841215127        6.1457709504        3.7258063497
 O        -8.4400865026        6.5497661828        3.6896605016
 C       -10.5085932643        5.8887928405        2.4150824290
 C        -9.5466364838        5.9584883432        1.1896088860
 C        -8.4932107914        4.8237662950        1.2335592948
 O        -8.7158296223        3.7203785258        1.6707496301
 C        -7.0747359252        5.1625532167        0.7215855221
 C        -6.8700048484        4.3379993352       -0.6004635798
 O        -6.8496147314        3.1457722760       -0.5699890236
 C        -6.6403925795        5.0553243030       -1.9221316059
 C        -6.9120352484        4.0426563932       -3.0942557873
 C        -6.2553214449        4.6174088368       -4.4399451662
 O        -5.2556398040        5.2553455548       -4.4724341810
 C        -7.0296320231        4.2416126497       -5.7401342203
 C        -8.4734646134        4.7672541429       -5.6062364603
 O        -8.8302220771        5.7174171412       -4.9133895918
 C        -9.6101408199        4.0896674719       -6.4639118815
 C       -11.0503008805        4.5898355468       -6.1945099580
 C       -11.4718664146        4.1284010863       -4.7409719308
 O       -11.2343600050        2.9904244020       -4.3778907311
 C       -12.3715800810        5.1248655424       -3.9045624773
 C       -12.5729032422        4.6542611331       -2.3783679896
 O       -11.9334209350        5.2760576558       -1.5146536749
 C       -13.4316448472        3.4381326344       -2.0711430709
 C       -13.1520801236        2.8618213009       -0.5552290626
 C       -14.1844376654        1.9005012953       -0.0634026263
 O       -14.6299323919        0.9937416461       -0.6843963849
 C       -14.6319283730        2.0376367284        1.5309958379
 C       -13.2858161961        1.5142849789        2.0853037602
 O       -12.4230272921        2.3304018641        2.3687069383
 C       -12.9617541847        0.0236866851        1.8932672896
 C       -11.5830887337       -0.5392301799        2.0868034538
 C       -10.5391109124        0.1669971323        1.2967305566
 O       -10.7454694451        1.1258709327        0.6227657338
 C        -9.0489511762       -0.3944912630        1.2979623428
 C        -8.4989354410       -0.3706077154        2.7881651905
 O        -8.8251940171        0.5626329625        3.4943777346
 C        -7.6028162488       -1.4468015167        3.3720288886
 C        -9.0460595279       -1.8267549664        0.6847003681
 C        -8.0861081920        0.5631142664        0.6018637336
 C       -14.9837189064        3.4459002369        2.0541493533
 C       -15.8227971700        1.0642369714        1.6400880318
 C       -11.6142205283        6.5355630058       -3.8614126639
 C       -13.7911700589        5.3933068506       -4.4797040998
 C        -6.3839437585        5.0094796021       -6.9703386368
 C        -6.9000107399        2.7178544087       -5.9087533218
 C        -6.7314498754        6.6627199626        0.5765823584
 C        -6.0976236580        4.4969730061        1.7013182949
 C       -11.6269162488        6.6237244050        5.3071151759
 C        -9.3836753053        6.6623913783        6.2523457543
 H        -9.7437378341        4.3262764764        7.6008456907
 H       -10.9073449763        3.0915917464        7.1801989567
 H       -11.4755313779        4.7050645780        7.3967820379
 H       -11.1938804569        6.7268616490        2.4296157394
 H       -10.9731001287        4.9354824643        2.5519932046
 H        -8.9805294410        6.8478911167        1.2166168041
 H       -10.0791826903        5.9165022940        0.2415910197
 H        -5.5943200562        5.4551712344       -1.9379919317
 H        -7.3747780313        5.8774428649       -2.0168123566
 H        -8.0150675339        3.8995653191       -3.1906610660
 H        -6.4592258330        3.0462382636       -2.8167936126
 H        -9.5665066561        2.9979208886       -6.3395698299
 H        -9.3849606577        4.3580732827       -7.5739893255
 H       -11.7323226994        4.1020362155       -6.8811756576
 H       -11.2630105459        5.6686897818       -6.3371215275
 H       -13.2027563941        2.6385638965       -2.7599250267
 H       -14.4479527875        3.6851779278       -2.1549461311
 H       -13.0636541816        3.6307606727        0.2173455531
 H       -12.1859882687        2.4122873269       -0.5541911507
 H       -13.4025628068       -0.2325754637        0.9702253566
 H       -13.5685373353       -0.5242406875        2.5815850808
 H       -11.6070066283       -1.6279032278        1.8914857198
 H       -11.2644012206       -0.6063171932        3.1578211489
 H        -8.0298583146       -2.4291283034        3.2904662036
 H        -7.3498540786       -1.1191534505        4.3667768194
 H        -6.6299761364       -1.3908848783        2.7853694082
 H        -9.5128359832       -1.8453724983       -0.3172293600
 H        -9.4812680016       -2.5612289086        1.4005653412
 H        -8.0040351769       -2.1950587445        0.6725327411
 H        -8.0182799019        0.4641482404       -0.4746739697
 H        -7.0305632807        0.3830702891        0.7799079086
 H        -8.2607300388        1.6074083743        0.8676866732
 H       -14.1896419130        4.0318088655        2.4001572836
 H       -15.8610534203        3.3832931812        2.7238611990
 H       -15.4626266116        3.9826572634        1.2046100935
 H       -15.8893410800        0.3316085284        0.8666228971
 H       -16.7025629925        1.6588399998        1.6614047929
 H       -15.7376512032        0.4950421896        2.5974633963
 H       -12.0751755073        7.1889619852       -3.1312172901
 H       -11.6010074313        6.9521302710       -4.8501841801
 H       -10.5500827183        6.3721813100       -3.4780137253
 H       -14.3795020179        4.5855659998       -4.1855625398
 H       -13.9842437576        5.3487509055       -5.5479489849
 H       -14.2066912989        6.3101655145       -4.1210249270
 H        -5.3428425156        4.7528865451       -6.8912952520
 H        -6.5917870473        6.0586340107       -6.7804740962
 H        -6.8787789324        4.7378870733       -7.9370262825
 H        -7.1669313556        2.1718555745       -4.9868250314
 H        -5.7905754012        2.4923617491       -5.9742636583
 H        -7.3367945935        2.3027527758       -6.8149520029
 H        -6.9405379672        7.2319656018        1.4772579020
 H        -7.3698015637        7.0777177282       -0.1802297937
 H        -5.6258407496        6.8243970920        0.3835910921
 H        -5.1109246279        4.5659212993        1.2837187244
 H        -6.3514317791        3.5158630477        1.9773999647
 H        -6.1447201507        5.0771943688        2.5972933833
 H       -12.3920112114        6.1677639869        4.6794236743
 H       -11.6569436497        7.6832806080        5.1406626723
 H       -12.0680702509        6.5069750269        6.2292023789
 H        -8.3435862340        6.2252432567        6.3473479790
 H        -9.8593365782        6.4069805120        7.1849907322
 H        -9.2946766651        7.7083821303        5.9770285124
 Na      -10.2075572571        2.3202556008        2.9085951464
