117

 C       -15.1386215321        7.3780358734       -0.7883544981
 C       -14.1445772506        6.7136145970        0.1072355249
 O       -14.2729613450        5.5875746024        0.5889343728
 C       -12.7267780592        7.5680980031        0.6646246910
 C       -12.6382860914        7.1577715501        2.0920105136
 O       -11.7579362362        6.3996796514        2.4218703021
 C       -13.6739720909        7.7755477981        3.1358536797
 C       -13.5210382027        7.3941125007        4.6814013892
 C       -14.7430870224        6.4307080129        5.1450345948
 O       -15.8884830231        6.8261896904        5.2325775441
 C       -14.4101166874        4.9398329998        5.5525233313
 C       -14.0517002398        4.0524513231        4.3434167542
 O       -12.9730315540        4.2528692549        3.9065955677
 C       -15.1153808058        3.2732589815        3.5558137060
 C       -14.5622494108        1.9423052586        3.0814323268
 C       -14.1418610133        1.9230515275        1.5824052224
 O       -14.1996971629        2.8199339968        0.7813454111
 C       -13.4558097020        0.5692772449        1.1545983678
 C       -12.1117412257        0.7369017807        2.0153686985
 O       -12.2329896437        0.4206647507        3.1544506203
 C       -10.6815064172        1.0689240508        1.3703473482
 C        -9.7374448273        1.4190491629        2.4891346149
 C        -8.9516449019        2.7177355678        2.1680465109
 O        -9.4970646255        3.6328352725        1.5671517959
 C        -7.5203791377        2.8915384070        2.4259031240
 C        -6.8955892645        2.7742239489        1.0248143477
 O        -6.4934001209        3.7599914945        0.4217298230
 C        -6.7720599833        1.3059884689        0.5689244900
 C        -6.1560073170        1.2330363688       -0.9306980644
 C        -6.9596134149        1.8089079962       -2.1816041949
 O        -8.1065024979        2.2841499183       -2.0245115292
 C        -6.1644075340        2.0618623834       -3.4315889949
 C        -5.2663222321        0.8165842019       -4.0126606123
 O        -5.1518900033       -0.1409633623       -3.2608138329
 C        -4.7757758831        0.6660111770       -5.4461536453
 C        -3.9310867001        1.8651608740       -5.7227219680
 C        -3.4315438076        2.1410615295       -7.1304825907
 O        -2.7121746166        1.2987483054       -7.5157413311
 C        -3.8124199972        3.3855315641       -8.0312384674
 C        -5.2433949890        2.9640117502       -8.4971938692
 O        -5.6804214136        1.8173475766       -8.4159272400
 C        -5.9389898301        3.9993762415       -9.2790759594
 C        -3.7342271696        4.7590867656       -7.2798343991
 C        -2.8062979482        3.3243256070       -9.1362975173
 C        -7.1251328944        2.5938648345       -4.5271751300
 C        -5.2439133416        3.2640043039       -2.7748379959
 C        -7.3454107703        4.2861136132        2.8707368202
 C        -6.9325837544        1.8834707120        3.4883928452
 C       -14.0906858817       -0.7859336130        1.5702320956
 C       -13.0955117997        0.6978760196       -0.2678388049
 C       -13.1941376325        4.8027430256        6.6049783106
 C       -15.7680358088        4.3303481006        6.2619968301
 C       -11.5241564057        7.0419624880       -0.2312549189
 C       -12.9955370664        9.1277238197        0.5405438959
 H       -14.9917183447        8.4752537327       -0.6100032931
 H       -16.1737809422        7.0592692861       -0.5915106533
 H       -14.9289370616        7.0787630590       -1.7744137702
 H       -14.5946158932        7.5069388637        2.6891749363
 H       -13.5896657181        8.9158579640        3.0493706102
 H       -13.6301392353        8.1805300189        5.3497912818
 H       -12.5664201032        7.0097181318        4.8714539993
 H       -15.3789940123        3.9362378623        2.7621430987
 H       -16.0264698914        3.1858773850        4.1650000448
 H       -15.2906835695        1.1375315134        3.0516377011
 H       -13.8000938601        1.6623919569        3.7959528510
 H       -10.7017321248        1.7926477940        0.6332686227
 H       -10.2033318094        0.1787130182        0.9215880069
 H        -9.0511151948        0.6587308577        2.6107964421
 H       -10.2360671347        1.6235398249        3.4918798665
 H        -7.8199096229        0.8756943475        0.6112585654
 H        -6.0574423255        0.6314656978        1.2014085705
 H        -5.8717697471        0.1481130342       -1.2634298434
 H        -5.1895265381        1.7336523829       -0.8912097248
 H        -5.7155050310        0.4489063618       -5.9747106263
 H        -4.1274489010       -0.3095707616       -5.6177359718
 H        -2.9702166457        1.6999321630       -5.1732978235
 H        -4.4638169458        2.7671887889       -5.4490009685
 H        -6.4719553452        4.6515035753       -8.5869822737
 H        -6.5371141528        3.5688788786      -10.0690167070
 H        -5.1031768451        4.6902862902       -9.6308515015
 H        -4.6669998812        5.2920821010       -7.0931155297
 H        -3.1819368826        5.4995156557       -7.8037002115
 H        -3.2778456201        4.8251848217       -6.3355661506
 H        -3.1192795628        2.7299107096       -9.9780519980
 H        -1.8495608841        2.9279414363       -8.8611101300
 H        -2.4058986342        4.2714448451       -9.5482264917
 H        -7.7723682911        3.3458869425       -4.1143571910
 H        -7.7345859309        1.6239763421       -4.6783479463
 H        -6.6476254792        3.0672560702       -5.4505214345
 H        -4.2849268990        2.9183138920       -3.0178634210
 H        -5.5816362429        3.4681606459       -1.7532495518
 H        -5.2785335828        4.1304721469       -3.4080730554
 H        -6.4133231036        4.6743083270        3.3142090785
 H        -8.2582383802        4.5111487440        3.4533345307
 H        -7.4226492812        4.8491589441        1.9370887491
 H        -7.4884380104        1.9763406043        4.3905935048
 H        -5.9003448420        2.2480005376        3.6530761402
 H        -6.9487905542        0.9405318967        2.9833136095
 H       -15.1756104390       -0.5895223244        1.3231644198
 H       -14.0846477186       -1.0894667935        2.6021015483
 H       -13.7699526867       -1.5179769289        0.8112314664
 H       -12.2669425330        0.0668073764       -0.5435298960
 H       -12.7143580684        1.6150914096       -0.7170540895
 H       -13.9877913761        0.6703022896       -0.8437807718
 H       -13.5378443163        4.0514732852        7.2663425005
 H       -13.2821872708        5.6385824356        7.2850841462
 H       -12.2288445385        4.6131353256        6.2301271295
 H       -15.6310217645        4.6612122171        7.3429529394
 H       -15.5296966043        3.2645702703        6.3414148158
 H       -16.6129432356        4.7407494635        5.7237281178
 H       -11.3497710413        5.9830710433        0.0130611829
 H       -10.5270613278        7.5106697995       -0.0775098060
 H       -11.7201782476        7.0426367741       -1.3071184867
 H       -12.2532128472        9.7970050511        0.9693114905
 H       -13.9178994127        9.2851207217        1.1570735974
 H       -13.3101063476        9.3904895105       -0.4461054404
 Na      -12.1219421216        4.1710461868        1.6853193670
