117

 C       -10.3697796666        4.6249082692        7.0913710361
 C       -10.2391830094        4.7251258934        5.5747807767
 O       -10.1248946965        3.6285726539        5.0237761133
 C       -10.3288272797        6.1292052322        4.9274972338
 C        -9.5017717660        6.2095135651        3.6030505265
 O        -8.2904112278        6.2099416557        3.6523616479
 C       -10.3457804971        5.8861884814        2.3247117791
 C        -9.6075820263        5.8783296903        1.0273099098
 C        -8.4167551880        4.8495908924        1.1161518672
 O        -8.5491209620        3.7330605787        1.5958838996
 C        -6.9961030571        5.2734970134        0.6089784130
 C        -6.6454680592        4.3129682740       -0.6598642901
 O        -6.8591000487        3.1061504855       -0.5685068570
 C        -6.2149790269        4.8841070745       -2.0207403560
 C        -6.4988728301        3.8883980078       -3.1587192388
 C        -6.2379816067        4.4530692982       -4.5473567603
 O        -5.3720485654        5.3225572913       -4.6515019526
 C        -7.1560275997        4.0268980782       -5.7870330525
 C        -8.6728789897        4.4865885347       -5.5328571331
 O        -8.9131236255        5.3807644960       -4.7489120658
 C        -9.7442695758        3.9562411393       -6.4515776931
 C       -11.0468124014        4.5392719276       -6.1244419967
 C       -11.4942265460        4.1929342081       -4.6932443777
 O       -10.9872044683        3.2598977904       -4.1089556350
 C       -12.5720855431        5.0539447224       -3.8862879671
 C       -12.4704961389        4.4066097198       -2.3795535148
 O       -11.6800731803        4.9278148988       -1.6652072574
 C       -13.3657170992        3.2416061345       -2.0219960705
 C       -13.5052923048        3.1306199461       -0.4285111090
 C       -14.4434735760        1.9554864059       -0.0090606437
 O       -14.9756356754        1.2645304361       -0.9042974348
 C       -14.6169606670        1.7976660199        1.5369591294
 C       -13.2722359935        1.3823056936        2.2002818080
 O       -12.5501078404        2.2095482830        2.7200494007
 C       -12.8827291218       -0.1287729664        1.9690924384
 C       -11.4272319896       -0.3786658785        2.3881200368
 C       -10.3778445572        0.1668071534        1.4032509365
 O       -10.7577015175        1.0127521497        0.5763326480
 C        -8.9099862244       -0.2207941451        1.5012327133
 C        -8.4971663222       -0.0821032888        2.9548276834
 O        -8.8633145513        0.9151226915        3.5783944141
 C        -7.4566259090       -1.0371717875        3.6782914741
 C        -8.7397969819       -1.6585809705        0.8864367155
 C        -7.9978869114        0.7603501823        0.6699295859
 C       -15.1222527527        3.0681477368        2.2317046730
 C       -15.7111257933        0.6516482080        1.7531851425
 C       -12.2650431190        6.5538401055       -3.9073563404
 C       -13.9476871854        4.7996101469       -4.4983371715
 C        -6.7647560380        4.7403077991       -7.1084253876
 C        -6.8279692990        2.5005027884       -5.9233173748
 C        -6.9209060435        6.7930657305        0.2292127004
 C        -5.9562343230        4.8830058634        1.7510189891
 C       -11.7606551061        6.4958927996        4.8127560532
 C        -9.7476033222        7.2742987602        5.8959303053
 H        -9.4060709074        4.8333136393        7.5649893961
 H       -10.4965465782        3.5556168301        7.3282366183
 H       -11.1376694429        5.1760754712        7.4733695995
 H       -11.0754850699        6.6624510180        2.3171917732
 H       -10.8780975844        4.9554141092        2.5446488101
 H        -9.2479342654        6.8580728499        0.7071601797
 H       -10.2976987545        5.5537967875        0.2913880006
 H        -5.1439107082        5.1123455243       -2.0464642820
 H        -6.7287836842        5.8960229728       -2.2047171727
 H        -7.6426988413        3.7241884600       -3.2118143883
 H        -6.0637232976        2.8984657166       -2.9959494390
 H        -9.7771488108        2.8442831868       -6.1607400314
 H        -9.5360766739        4.0360585406       -7.5335942320
 H       -11.8187292444        4.1674152011       -6.8101672575
 H       -11.1502552469        5.6162656787       -6.2278857045
 H       -13.0261694521        2.4381469752       -2.6168157284
 H       -14.3720341601        3.4280326952       -2.3516603669
 H       -13.8103806031        4.0923940051       -0.0752201615
 H       -12.4837142481        2.9381312741       -0.0855088622
 H       -12.9393796638       -0.2543965073        0.9051107650
 H       -13.5401936040       -0.8027135184        2.4553150498
 H       -11.2931637304       -1.5033349536        2.4832651669
 H       -11.1614950141        0.0059809463        3.3868983487
 H        -8.0427940047       -2.0121117077        3.7836012788
 H        -7.2344278564       -0.7395147023        4.7153910714
 H        -6.5846448425       -1.2211263619        3.0909511757
 H        -9.1073482165       -1.7123837387       -0.1643684189
 H        -9.4078542308       -2.4473072887        1.3712517658
 H        -7.6903254588       -1.9868245127        0.9327306083
 H        -8.5386025921        1.1223359194       -0.2421180054
 H        -7.0746626585        0.3559061854        0.2801068056
 H        -7.6445780636        1.6517585490        1.1560001688
 H       -14.3292291112        3.8483776804        2.3212807520
 H       -15.4331699873        2.9391080799        3.2703084941
 H       -15.9953351043        3.4622318254        1.7078370945
 H       -15.2682708477       -0.3625116995        1.8642939420
 H       -16.3479201830        0.5751599600        0.8526008195
 H       -16.2340912969        0.7581247514        2.6318286176
 H       -13.0837929789        7.0509406334       -3.3228106130
 H       -12.3481022725        6.8414336429       -4.9883794532
 H       -11.2835417840        6.7674237089       -3.5645475973
 H       -14.2969150682        3.7519676533       -4.3860535633
 H       -13.9200241522        5.0452244573       -5.5184230733
 H       -14.7336250742        5.4069731527       -4.0441034133
 H        -5.8194014815        4.3227018520       -7.5437599020
 H        -6.7044351194        5.8403186987       -6.9577398248
 H        -7.5908336971        4.6092879423       -7.7556531716
 H        -7.0812921648        1.9541891180       -4.9705562392
 H        -5.7857143107        2.3525387855       -6.0630615100
 H        -7.3431720894        2.0830018591       -6.8466879204
 H        -7.1772858031        7.3842591342        1.1317031895
 H        -7.5258586181        7.0693889267       -0.6535289049
 H        -5.8938664275        7.0412932759        0.0356336076
 H        -5.0047436350        4.9915406317        1.3521446763
 H        -6.0425631780        3.7994740381        1.8150481271
 H        -6.0809160120        5.3049712266        2.7098867709
 H       -12.4042061055        5.8937159291        4.1919490935
 H       -11.8452868936        7.4628268634        4.3909652424
 H       -12.2484189311        6.6181742597        5.7888841105
 H        -8.6862310838        7.1927879508        5.9822949648
 H       -10.1650061514        7.2773953304        6.9520523877
 H       -10.1613335221        8.1545557376        5.4304271272
 Na      -10.2698415845        2.6150576347        2.8921974313
