117

 C       -10.0330194968        4.9501660232        7.1244146477
 C       -10.1824785158        4.7914374880        5.5684456771
 O       -10.3806469075        3.6845215323        5.0585963869
 C       -10.3532314586        6.2040415238        4.7779408796
 C        -9.6468118729        6.1468940135        3.3405370152
 O        -8.4345121938        6.0626295497        3.3251590131
 C       -10.4494237757        5.9166274940        2.1037390054
 C        -9.5862682483        5.7306165328        0.8744182235
 C        -8.2593278025        4.8962745842        1.1630594527
 O        -8.3685351436        3.7952891600        1.7060285698
 C        -6.9660303824        5.3011083554        0.5071144577
 C        -6.6596802153        4.3245266568       -0.7275609844
 O        -6.6409593102        3.1162024991       -0.4927193283
 C        -6.4864574281        4.9582435816       -2.1159656359
 C        -6.5967903729        3.9047668159       -3.2577071101
 C        -6.2873538152        4.5066767217       -4.6056146433
 O        -5.4924068349        5.4398670844       -4.8477163363
 C        -7.0753014310        3.9582875157       -5.8079946054
 C        -8.5801775419        4.5017561376       -5.6039227172
 O        -8.9130823093        5.0632792162       -4.5825325795
 C        -9.6908590116        3.9516589887       -6.5260951355
 C       -10.9990735867        4.4531094567       -5.9932080299
 C       -11.4015824883        4.0534890217       -4.5729482107
 O       -10.9398101923        3.1002374021       -3.9759873721
 C       -12.5809595784        4.8645113258       -3.9021992302
 C       -12.6018357868        4.4779899272       -2.3502242269
 O       -12.1058118767        5.2226485248       -1.5691466649
 C       -13.2859321893        3.2161885559       -1.8364858873
 C       -13.4444631217        3.0795928049       -0.3035426553
 C       -14.4975544555        1.9615781166        0.1321119515
 O       -15.1505135333        1.4146402293       -0.7414164726
 C       -14.6937855730        1.6598475619        1.7641592937
 C       -13.2673103794        1.2732265132        2.2097250062
 O       -12.5134237394        2.1905121440        2.4706077468
 C       -12.8725010727       -0.2293524854        2.1377174058
 C       -11.3731107464       -0.5645424465        2.3175374496
 C       -10.3528661287        0.2344419753        1.4852474230
 O       -10.6919695811        1.1843069591        0.8056529093
 C        -8.8309138989       -0.1583811171        1.6719116062
 C        -8.2861785305        0.0970384394        3.0929553295
 O        -8.6381246929        1.1579343266        3.6331493141
 C        -7.3944199523       -0.8728955470        3.7820779931
 C        -8.7341421717       -1.6837687675        1.3671202802
 C        -8.0021757688        0.6187999518        0.5855615024
 C       -15.2243073993        2.8990086335        2.4933301759
 C       -15.7831132823        0.5223110469        1.7592962684
 C       -12.2533927498        6.4035107230       -3.9638087785
 C       -13.9420240932        4.6336555770       -4.5248991049
 C        -6.4448995769        4.6452934999       -7.1777717020
 C        -7.0067653607        2.3969898468       -5.9838386755
 C        -6.9689769216        6.7912424468        0.0532143156
 C        -5.8225114016        4.9972128234        1.5478272202
 C       -11.9201300999        6.3878362949        4.6538313898
 C        -9.9015956812        7.4819570122        5.5610340395
 H        -9.1320913850        5.3887730764        7.5331853501
 H       -10.0323551584        3.9162024302        7.5839739942
 H       -10.9146812453        5.4954295905        7.4368707217
 H       -11.0961256573        6.8167877552        2.0257978527
 H       -11.1672034436        5.1361261593        2.3927663980
 H        -9.3883552209        6.6699719307        0.3428670157
 H       -10.2025014218        5.1376434741        0.1491760363
 H        -5.5379987702        5.3854818056       -2.0940957091
 H        -7.1457567515        5.8094604100       -2.2232416944
 H        -7.5596122750        3.3680196696       -3.2701143717
 H        -5.8897534781        3.1236578285       -3.1172471864
 H        -9.6161357996        2.8721379268       -6.5461584845
 H        -9.6217874242        4.2897291216       -7.5831902709
 H       -11.8000930617        4.0073659906       -6.5859643618
 H       -11.1269396109        5.5445994045       -6.1010386009
 H       -12.8014674546        2.2761970353       -2.3033119280
 H       -14.2695934947        3.1811479103       -2.3450315246
 H       -13.9607573072        4.0006929341        0.0485837717
 H       -12.4057342948        2.9871187005        0.0966987530
 H       -13.0901938547       -0.4363980737        1.0741543838
 H       -13.5590567964       -0.7570112475        2.8511865644
 H       -11.1888641546       -1.5706545061        2.0003922129
 H       -11.0723365538       -0.4348128638        3.3530671814
 H        -7.8855752408       -1.8355046932        4.0795838098
 H        -7.1763277634       -0.3844616248        4.7092000492
 H        -6.5610096254       -1.0461549266        3.1335678677
 H        -9.1086046911       -2.0140581496        0.4334671007
 H        -9.2754285275       -2.2796698834        2.1055770162
 H        -7.7193480954       -1.9344014194        1.2353987868
 H        -8.1480695047        0.0998151922       -0.4032775854
 H        -6.9585610409        0.7832915886        0.7528767735
 H        -8.3503614561        1.5938958849        0.3024356385
 H       -14.5624080693        3.7226393292        2.5816307600
 H       -15.4016417859        2.5914486781        3.5284393176
 H       -16.1360569886        3.2944441211        2.0018479433
 H       -15.9999526081        0.2256407920        0.6808979053
 H       -16.7566240665        0.8802639141        2.1694877296
 H       -15.5349693306       -0.3494277304        2.3010701304
 H       -12.9386130305        7.0024782458       -3.3850462055
 H       -12.4588765561        6.6441117249       -4.9769551084
 H       -11.1886768844        6.5268738853       -3.8200837005
 H       -14.1381300405        3.5470671838       -4.4389998080
 H       -13.9553059051        4.9885002170       -5.5630588008
 H       -14.7819981033        5.0403483897       -3.8833558527
 H        -5.3192206492        4.6248216182       -7.1207789143
 H        -6.7327306576        5.6976164933       -7.1019787979
 H        -6.7277071155        4.2090716181       -8.0545614592
 H        -7.5576674977        1.9417225291       -5.1250438626
 H        -6.0394512122        2.0463749889       -6.0914025857
 H        -7.6523013938        2.1065977937       -6.8219438476
 H        -7.1328632807        7.4382744022        0.9071582428
 H        -7.6883519482        6.9789354923       -0.7017279369
 H        -6.0132061312        7.0153671693       -0.4521602237
 H        -4.7826046993        5.1783225852        1.2451282168
 H        -5.8888526674        3.8917687907        1.8605774459
 H        -6.0605097022        5.6355726856        2.4362540698
 H       -12.5406911695        5.5352147820        4.2074870733
 H       -12.1574662123        7.2146215049        3.9491762448
 H       -12.2880748888        6.6605755786        5.6425779775
 H        -8.9173914098        7.2343562468        5.9261701496
 H       -10.5960601959        7.6519886582        6.4063187410
 H        -9.9383082138        8.3609819636        4.9924129359
 Na      -10.1841073655        2.7886838894        2.8485193044
