117

 C        -9.7418496035        5.0594151683        6.9568341607
 C       -10.2334831836        4.9678866660        5.5206131735
 O       -10.3703297711        3.8759690761        5.0189702089
 C       -10.6049807624        6.2234182725        4.6081585922
 C        -9.9037900424        5.9964242831        3.2760574296
 O        -8.7188228198        6.1666976321        3.2523348893
 C       -10.6167254923        5.6745843193        1.9096094229
 C        -9.6362779404        5.6605044529        0.7515884249
 C        -8.3504111687        4.9076490163        1.0158430775
 O        -8.3190310147        3.8771827195        1.6814974960
 C        -6.9215694216        5.3396413764        0.4181593326
 C        -6.6847680321        4.3193506304       -0.7921419748
 O        -6.4797489061        3.1427576600       -0.5973973902
 C        -6.7728543905        4.8368754613       -2.2090345761
 C        -6.5144003869        3.8197212032       -3.2649120177
 C        -6.2637865324        4.5001673438       -4.6615684139
 O        -5.5101578429        5.4244889964       -4.6520107748
 C        -7.0572270722        3.9814608400       -5.8960080180
 C        -8.5466877774        4.5105867316       -5.5569452784
 O        -8.7605624588        5.1884711210       -4.5734472886
 C        -9.7313862089        3.9803449323       -6.4406061602
 C       -11.1774322962        4.2063961085       -5.9028054505
 C       -11.4152183386        3.8563161492       -4.4154161533
 O       -11.0560448204        2.8076184890       -3.9348490759
 C       -12.4765006117        4.7979320301       -3.6845454490
 C       -12.6411209192        4.5592840662       -2.1959675484
 O       -12.4190824325        5.4069297962       -1.2898056910
 C       -13.3245048839        3.2777417412       -1.8030547764
 C       -13.5472812890        3.1241722912       -0.2740822532
 C       -14.4787332265        2.0257335486       -0.0382739696
 O       -15.2845050092        1.5019455884       -0.7629047641
 C       -14.5411290084        1.6098381323        1.5897157983
 C       -13.1560404317        1.2861071983        2.1663022253
 O       -12.4661597975        2.1154882946        2.7734067564
 C       -12.7174928774       -0.2557030451        2.0495861270
 C       -11.3151578004       -0.5436003347        2.4671362283
 C       -10.3133088991        0.2452365880        1.5521484671
 O       -10.6053351922        1.2728818577        0.9864068238
 C        -8.8127725394       -0.2845459471        1.7140977501
 C        -8.3989285234        0.2419599344        3.1479767796
 O        -8.7130357234        1.2860627869        3.6410505777
 C        -7.2259709539       -0.5708683690        3.8545959897
 C        -8.7602590602       -1.7728363620        1.5589571648
 C        -7.9332658629        0.4306766460        0.7031564013
 C       -14.9939919572        2.9262019780        2.3513828502
 C       -15.5657662653        0.5800195532        1.8112648401
 C       -12.2628110991        6.3059663438       -3.9182871826
 C       -13.7290969182        4.3123775847       -4.5093283286
 C        -6.6904485465        4.5312809243       -7.2547933106
 C        -7.0363459952        2.3648132716       -5.8628050975
 C        -6.7564309255        6.8308986364        0.0528463283
 C        -5.8253511003        5.0377883183        1.4446211095
 C       -12.1520679533        6.3898976245        4.5373769063
 C        -9.8037972906        7.4010540699        5.2594371988
 H        -8.7792820731        5.5369854973        6.9454953487
 H        -9.5513791441        4.1347594201        7.3491232343
 H       -10.4263593877        5.7606690776        7.5547685394
 H       -11.4066007145        6.3633361414        1.6629565536
 H       -11.1382221528        4.7441531281        2.1045807335
 H        -9.3580359272        6.6549474535        0.4414900522
 H       -10.1134213945        5.2737289319       -0.1291472989
 H        -6.1598111824        5.8117529251       -2.2762175607
 H        -7.7940256598        5.2269855607       -2.2522397190
 H        -7.2977977668        3.0771654738       -3.2197361275
 H        -5.5958095565        3.2163758504       -2.9520729932
 H        -9.5848324710        2.8709438622       -6.5810266334
 H        -9.6082198558        4.4196667566       -7.4549763501
 H       -11.8953573022        3.6178730245       -6.5121444535
 H       -11.4414758997        5.2540786229       -5.9002348331
 H       -12.8844266881        2.4676022379       -2.2689146313
 H       -14.3061228205        3.2378058672       -2.2634985707
 H       -14.0080795010        4.0372366449        0.0565623906
 H       -12.6881408836        2.8269171408        0.3542902363
 H       -12.9396128663       -0.5691477305        1.0585752867
 H       -13.3470530935       -0.6932188586        2.7702310463
 H       -11.0590310348       -1.6192835862        2.5948750634
 H       -11.2697228085        0.0541137009        3.4012659838
 H        -7.5944548868       -1.4873550678        4.2458929896
 H        -6.8007266157       -0.0382145054        4.7226079187
 H        -6.5519869270       -0.8651091646        2.9993665487
 H        -9.3291744203       -2.0581884652        0.6471959729
 H        -9.1649681529       -2.3263664863        2.3836914235
 H        -7.8057071961       -2.1660216958        1.1415376640
 H        -8.0388935110        0.0659213559       -0.2721131411
 H        -6.8673075036        0.4374450807        1.0127738818
 H        -8.1819609964        1.4863609822        0.5109195207
 H       -14.3472544573        3.8261424279        2.1982880233
 H       -15.0456186836        2.7412367512        3.4310077202
 H       -15.9429766867        3.2774456568        1.9603815856
 H       -16.3241560354        0.6458177766        1.0852545962
 H       -15.9690394240        0.6123029336        2.8182820712
 H       -15.1066256591       -0.4649932194        1.7574963140
 H       -13.1161631553        6.7966405650       -3.4663257107
 H       -12.1765329040        6.7213847857       -4.9341843923
 H       -11.3304983593        6.4671465038       -3.3295605849
 H       -13.6738887040        3.2292681920       -4.6708775749
 H       -13.7101966001        4.8606836415       -5.4726610546
 H       -14.6330675907        4.4745928753       -3.9718717219
 H        -5.7107478553        4.3214693344       -7.5965264455
 H        -6.7989287578        5.5973032507       -7.2213394462
 H        -7.3306410955        3.9624938947       -8.0161850701
 H        -7.7356358233        1.9544844671       -5.1692600007
 H        -5.9262990229        2.1723232051       -5.6632132672
 H        -7.3342912485        1.8961355757       -6.7773826812
 H        -7.0606193110        7.3469937743        0.9450860389
 H        -7.4518227536        7.1373271441       -0.7474515539
 H        -5.7729604861        7.0884754038       -0.2870690124
 H        -4.8604004931        5.3230364439        1.0020436645
 H        -5.7704026632        4.0361340444        1.6981506731
 H        -5.8951497779        5.6789793781        2.2975604562
 H       -12.5448255854        5.5759018493        3.9595945065
 H       -12.5483448888        7.3025977590        4.0706527989
 H       -12.5444837054        6.2451812722        5.5385172354
 H        -8.7204231624        7.2766213449        5.0841122426
 H       -10.1302587562        7.4543807088        6.2555252875
 H       -10.0706972487        8.3952536626        4.7921620544
 Na      -10.0741129268        2.9530545937        2.7735243982
