117

 C        -9.2532244568        6.4855906770        5.8805917045
 C       -10.0749713058        5.6963169224        4.9129210640
 O        -9.7193645892        4.5324709861        4.6033032370
 C       -11.1169126682        6.4419183904        3.9110152112
 C       -10.3364391239        6.3915752438        2.5291703886
 O        -9.3661766380        7.1428610745        2.4843016594
 C       -10.8622630076        5.5717188262        1.3725686450
 C        -9.9078408006        5.6201927649        0.2365784894
 C        -8.5516442416        4.8670794830        0.5825214023
 O        -8.7047829122        3.8081836479        1.1784277112
 C        -7.0685444447        5.2864408780        0.3296278845
 C        -6.6889636469        4.2423939950       -0.9293338161
 O        -6.6598107096        3.0571716039       -0.6779373564
 C        -6.5850029248        4.7466469908       -2.3207806512
 C        -6.6024848304        3.5957626245       -3.3084125986
 C        -6.2974992294        4.2364892178       -4.7420696062
 O        -5.4653312574        5.1263894862       -4.8274877618
 C        -7.3027055136        3.7352861207       -5.9416006215
 C        -8.8067034384        3.9724603805       -5.3907184185
 O        -9.0502749311        4.8933826917       -4.6444140439
 C        -9.8479357021        2.9286093308       -5.8090335958
 C       -11.2846844476        3.1244596019       -5.4532659838
 C       -11.4496654975        3.5836442478       -3.9482641152
 O       -10.7629509066        3.0678520473       -3.1121107586
 C       -12.6535638159        4.7070737610       -3.5458860769
 C       -12.9742156938        4.5679139827       -2.0074597580
 O       -12.5986471644        5.3755115808       -1.1904181410
 C       -13.8309548085        3.3491412218       -1.5389263486
 C       -13.2080120652        2.7303727588       -0.2515170970
 C       -14.2441200801        1.7467596160        0.4682020049
 O       -14.9569890981        1.1359698610       -0.2506240246
 C       -14.3932302057        1.7016640294        2.0313740147
 C       -13.0131099775        1.3581593129        2.5598965125
 O       -12.2309640346        2.2317874399        2.8989464539
 C       -12.4609585708       -0.1137974293        2.2931555649
 C       -11.0407314171       -0.4397162207        2.7413347402
 C        -9.9429779239        0.2048333286        1.8491596469
 O       -10.1704949919        1.0393323805        1.0258761120
 C        -8.4121004097       -0.2486028482        2.1324627874
 C        -7.9477828690        0.5364048334        3.4170281915
 O        -8.4013782249        1.6246309377        3.7867934682
 C        -6.7323284228       -0.0206693976        4.1640323644
 C        -8.3938494069       -1.7643027186        2.1698782095
 C        -7.4870986182        0.3438811016        1.0598333413
 C       -14.9248248186        2.9880263918        2.6283533224
 C       -15.3508217227        0.5301258560        2.4295487724
 C       -11.9597995211        6.0830000526       -3.7890141077
 C       -13.8422521232        4.6507166413       -4.5430181834
 C        -7.1450837108        4.6128392800       -7.2252164692
 C        -6.9614188399        2.2785813618       -6.2018053203
 C        -6.9346063928        6.7247497076       -0.0748252477
 C        -6.1947278293        4.8943437327        1.5413903996
 C       -12.4191919376        5.6402523097        3.9179007062
 C       -11.1932410004        7.9369677475        4.2649892688
 H        -8.7267523398        7.2668320612        5.4219140680
 H        -8.6321188599        5.7455863056        6.4513118375
 H        -9.8233433559        6.9224840440        6.7702131533
 H       -11.8282653140        5.9732034648        1.0586453930
 H       -11.0727756010        4.5088867988        1.6541326521
 H        -9.6715231415        6.6884045869        0.0639739114
 H       -10.3599122563        5.1523357804       -0.6464032907
 H        -5.6123295081        5.3316272684       -2.4348476464
 H        -7.4320569533        5.3979837189       -2.5045417655
 H        -7.5746577590        3.1241562486       -3.3525656547
 H        -5.8063918905        2.8377901813       -3.0235135333
 H        -9.4002812431        2.0422880092       -5.3874314609
 H        -9.7903976607        2.7844103916       -6.8388972415
 H       -11.8815161771        2.1791318729       -5.5147673922
 H       -11.7476836675        3.8565895756       -6.1130544519
 H       -13.9472200979        2.6024395974       -2.3414531775
 H       -14.8460905841        3.7468111324       -1.2423374181
 H       -12.7576609492        3.4471133521        0.4083612065
 H       -12.3159871690        2.1438627945       -0.4863907880
 H       -12.6189311380       -0.3970554715        1.2137590837
 H       -13.2120691297       -0.8148157399        2.6752992458
 H       -10.8963500788       -1.5273050464        2.8784114343
 H       -10.7906361770       -0.0094569047        3.7046381987
 H        -7.1107116222       -0.8052443610        4.7664343957
 H        -6.1681934034        0.7185677337        4.6904918365
 H        -5.9520330858       -0.3975880207        3.4096089352
 H        -8.8909080692       -2.2726713455        1.2836707681
 H        -8.9336608602       -2.1572116936        3.0127541072
 H        -7.3161868025       -2.1462999413        2.1874472479
 H        -7.7847862886        0.1555709771        0.0417495399
 H        -6.4279211521       -0.0361707712        1.1375322842
 H        -7.4268430435        1.4197198488        1.2871249612
 H       -14.1726531067        3.7260441821        2.8741522291
 H       -15.3466455128        2.7878915615        3.6200758402
 H       -15.7215120336        3.3667179614        1.9818118534
 H       -15.0000069823       -0.0035330519        3.2574214233
 H       -15.4897791537       -0.2114921973        1.6340556035
 H       -16.3469915001        1.0232356983        2.6424898206
 H       -12.6630386332        6.9032559516       -3.7839188637
 H       -11.3249340735        6.0957766321       -4.6919340468
 H       -11.2483415578        6.2383375941       -2.8826988484
 H       -14.3087478739        3.6891274042       -4.4864933868
 H       -13.4722273708        4.9706654631       -5.5281268035
 H       -14.5150871980        5.3486750032       -4.1537488936
 H        -6.1641545626        4.2962345697       -7.6170137880
 H        -7.0532390799        5.7223106239       -7.0949371469
 H        -7.9373128006        4.5699121259       -8.0051366858
 H        -7.1551258129        1.5574468213       -5.4352173692
 H        -5.8148458109        2.2686052450       -6.3715369048
 H        -7.4375386870        2.1043255209       -7.1587574297
 H        -7.3395804566        7.4896029394        0.5577093970
 H        -7.2625526378        6.8340191993       -1.1144390820
 H        -5.8915855392        6.9279252384       -0.2581681897
 H        -5.1551999012        4.9603402917        1.2393022408
 H        -6.2753141221        3.9454986037        1.9762464303
 H        -6.3948729860        5.5929872046        2.3183964865
 H       -12.0948600454        4.6396614856        3.7014868410
 H       -13.1147680665        5.9854639602        3.1571162561
 H       -12.8881566809        5.7303840555        4.8591469141
 H       -10.1712762516        8.3396434490        4.1578783176
 H       -11.4106079314        8.1257717114        5.2753825496
 H       -11.9242122894        8.5117354179        3.6588091840
 Na       -9.9769606271        2.9618064171        2.8084585816
