117

 C        -9.2911969325        6.7596788679        5.7162382359
 C        -9.9605554183        5.8849469008        4.6756118286
 O        -9.6464112724        4.7298833231        4.5971454871
 C       -11.0536088228        6.5141785646        3.7162149402
 C       -10.3730591329        6.5955482014        2.3466711829
 O        -9.4073195168        7.3007506018        2.2292278860
 C       -10.8634491577        5.7660030585        1.1406574371
 C        -9.6864823291        5.5522509694        0.1539606959
 C        -8.5145319204        4.8146758713        0.6780422413
 O        -8.5176807638        3.7483794971        1.2844123894
 C        -7.0930210451        5.2919689748        0.2510515051
 C        -6.7681603185        4.1909920606       -0.8106971773
 O        -6.7261692931        2.9967553352       -0.5457430606
 C        -6.7073997984        4.7511492749       -2.3096655441
 C        -6.3562677372        3.6266233415       -3.3662549314
 C        -6.2936128743        4.2379472550       -4.7629314471
 O        -5.4138659504        4.9810377424       -5.1452319185
 C        -7.4121897784        3.7194732115       -5.9170425533
 C        -8.8849670279        3.8098507012       -5.3997710400
 O        -9.2436706240        4.8872396374       -4.9429694505
 C        -9.8766810542        2.6596431188       -5.6191326358
 C       -11.2804181007        3.2332498635       -5.3387060295
 C       -11.5121069527        3.5789965683       -3.8667442402
 O       -10.9197437919        3.1044356519       -2.9021032117
 C       -12.5887635726        4.6117718537       -3.5179556580
 C       -12.9573318739        4.4138495292       -2.0183800329
 O       -12.6890224633        5.3254322836       -1.2307085743
 C       -13.8240715701        3.2372073967       -1.5523079279
 C       -13.5668576931        2.8582993545       -0.1497297016
 C       -14.2859818762        1.6986377808        0.3641734163
 O       -15.0453920222        0.9366851032       -0.2744181787
 C       -14.3219297720        1.6140174493        1.9607537938
 C       -12.8836258352        1.2835939522        2.5558674649
 O       -12.1774946934        2.2268188226        2.9020897229
 C       -12.4527354847       -0.1260836077        2.4005555795
 C       -11.0183902939       -0.4032750401        2.8374793718
 C        -9.9148670230        0.3029424057        1.9944631856
 O       -10.3201603664        1.1185030543        1.1506105036
 C        -8.4409789383       -0.0984285868        2.2109946086
 C        -7.8116865342        0.5583223005        3.4763672543
 O        -8.1890354748        1.5966063809        3.9261577516
 C        -6.6803836371       -0.1744212747        4.2691838048
 C        -8.2020722617       -1.6857522950        2.2831660196
 C        -7.6546603591        0.4450085126        0.9865536250
 C       -14.8845635734        2.9179025556        2.5517643319
 C       -15.3398418546        0.4696770813        2.3492261504
 C       -11.7968195603        5.8969250981       -3.6599248310
 C       -13.9729592201        4.6252289434       -4.3226083049
 C        -7.2241457884        4.6683947385       -7.0474767523
 C        -6.8719316394        2.2479907822       -6.2142637176
 C        -6.9295545822        6.6781017012       -0.2591632012
 C        -6.0526593562        5.0419641195        1.4322685373
 C       -12.3273495472        5.5372943391        3.8424282554
 C       -11.6364938997        7.8165459851        4.2833365471
 H        -8.6695530604        7.4566056064        5.0280258027
 H        -8.7141147140        6.2714870836        6.4183756371
 H        -9.9131869195        7.3715246463        6.3197129756
 H       -11.5159692571        6.4522739707        0.5627598574
 H       -11.4748571251        4.9115414431        1.3923912840
 H        -9.3876214206        6.5621184709       -0.1294491930
 H        -9.9326159251        4.9586691461       -0.7485906397
 H        -5.9929475269        5.5046204117       -2.3984297013
 H        -7.7254709959        5.1342137197       -2.5096040420
 H        -7.1049992624        2.8115230879       -3.4130480638
 H        -5.4187780591        3.2433729491       -3.1028355473
 H        -9.6481098672        1.8561758695       -4.8950700905
 H        -9.7938227297        2.2125048841       -6.6553797742
 H       -11.9957822353        2.4349455524       -5.4790762621
 H       -11.6674945913        4.0410476181       -5.9538525238
 H       -13.6908251158        2.4745819104       -2.3813542860
 H       -14.8622603357        3.6260204965       -1.5917436842
 H       -13.7481550716        3.6834004921        0.6020605359
 H       -12.4776520306        2.7114796856        0.0495535450
 H       -12.6545540857       -0.2835966104        1.3458516516
 H       -13.1411881809       -0.8905723572        2.7882932498
 H       -10.8340453100       -1.4741922928        2.6810821943
 H       -10.9060305827       -0.3580725914        3.9404163577
 H        -7.2069833930       -0.8343112349        4.9856367486
 H        -6.0018089207        0.5212127551        4.7595576035
 H        -6.0749620305       -0.6985068427        3.6180582156
 H        -8.6810838965       -2.1916974308        1.4890258714
 H        -8.6451691987       -2.1302563772        3.1934464671
 H        -7.1994273240       -1.9299057395        2.0929322348
 H        -7.8020718417       -0.2616575093        0.1361789121
 H        -6.5797103460        0.6143010907        1.1753294569
 H        -8.0666843279        1.4240349086        0.6551864274
 H       -14.2007439074        3.7998587392        2.4046804078
 H       -14.8936342027        2.8334831751        3.6223841305
 H       -15.8487395572        3.1613612221        2.1550550011
 H       -15.4696371091        0.4926040004        3.4446891284
 H       -15.0040392994       -0.5204429102        2.1361985665
 H       -16.2525448730        0.6045757812        1.8671258895
 H       -12.3307241353        6.7703448171       -3.2289811643
 H       -11.6723760637        6.0975811451       -4.7352329314
 H       -10.8473349099        5.7928582944       -3.2810476536
 H       -14.5934566516        3.8083206582       -3.9567344049
 H       -13.6650996222        4.5782835921       -5.3177603646
 H       -14.5217199310        5.5547067452       -4.0986436853
 H        -6.1836833873        4.7934281419       -7.2841144104
 H        -7.6618086246        5.6303171113       -6.8604571908
 H        -7.7840989616        4.3625156560       -7.9663473808
 H        -6.8856392642        1.7049872083       -5.2455656906
 H        -5.8673437388        2.3645224445       -6.4901355551
 H        -7.4145361569        1.6798744026       -6.9840631123
 H        -7.1333531733        7.2771224953        0.6468169173
 H        -7.6203319800        7.0898946152       -0.9909942812
 H        -5.9762315956        6.9316417740       -0.6963221598
 H        -5.0371739698        5.2053099365        1.1034718412
 H        -6.0658707681        3.9926223930        1.7175942767
 H        -6.2413621683        5.6044584641        2.3465349486
 H       -12.1022984850        4.4856791619        3.7555195363
 H       -13.0383269571        5.8651684148        3.0999789232
 H       -12.6630583690        5.8037151956        4.8977806333
 H       -10.9774685491        8.6717630448        4.4149502660
 H       -12.0287818468        7.5465520488        5.3210878115
 H       -12.5159409382        8.1451931187        3.7271137726
 Na       -9.8042141421        3.0584460076        2.9551428906
