117

 C        -9.3055006246        7.2078671140        5.2530448254
 C        -9.9811532398        6.0639736027        4.5734743836
 O        -9.5639912087        4.9126129953        4.6639625264
 C       -11.2237504741        6.5180790738        3.5147727759
 C       -10.5319018471        6.7223694311        2.0703565481
 O        -9.7203946626        7.6085383577        1.9106174017
 C       -10.8056393433        5.7717158789        0.9845582136
 C        -9.5903434046        5.6006074656        0.0648631631
 C        -8.3661683424        5.0338202338        0.7492002394
 O        -8.4718754729        4.4301816882        1.7978646506
 C        -6.9220790328        5.2716950271        0.0805278250
 C        -6.6575630341        4.2453087998       -1.1065355888
 O        -6.2353876174        3.1561119523       -0.8220489050
 C        -6.8224575014        4.6774548589       -2.5918875130
 C        -6.5179274260        3.5029382050       -3.6254418900
 C        -6.3836951277        4.0784702416       -5.0211820540
 O        -5.4770682877        4.8619453545       -5.2933442230
 C        -7.4361411767        3.5902345970       -6.0823742652
 C        -8.8024426443        3.7756666240       -5.3771937426
 O        -9.0004167079        4.8689337370       -4.8950634282
 C        -9.7315270290        2.5226811356       -5.2953056539
 C       -11.1780274581        2.9833917163       -5.1341424098
 C       -11.5065179238        3.4290897573       -3.6604652543
 O       -11.0496576463        2.8665254754       -2.6921300607
 C       -12.6724061134        4.5284415412       -3.4607325479
 C       -13.1629900729        4.4430931484       -2.0220379352
 O       -12.8897680895        5.3764195261       -1.2493564162
 C       -13.6129591073        3.0880110389       -1.3738490697
 C       -13.9354689546        3.1299568651        0.0570447171
 C       -14.3455076788        1.7048775989        0.5513016497
 O       -14.6192316010        0.7743306952       -0.1236317627
 C       -14.4458042583        1.3591704175        2.1904585290
 C       -12.9097781469        1.2117258261        2.6098315643
 O       -12.2302979936        2.1837405654        2.9025488469
 C       -12.3561316731       -0.1805419235        2.5971567707
 C       -10.8916742783       -0.1974356956        3.1107946101
 C        -9.8071373695        0.3398546156        2.1243619543
 O       -10.1509251958        1.3296762167        1.4219082253
 C        -8.3501144757       -0.1591722100        2.2623515305
 C        -7.8482659681        0.5013615021        3.6381039624
 O        -8.2418687079        1.5844017542        3.9938021300
 C        -6.6271768801       -0.0572488213        4.3139661628
 C        -8.2699566388       -1.6842498994        2.1374228827
 C        -7.5189893473        0.6057945178        1.1914697336
 C       -14.9983497486        2.5951705474        2.8450436118
 C       -15.3841863018        0.1710196217        2.4662269539
 C       -11.9588516935        5.9222375118       -3.5400440919
 C       -13.8136478883        4.3885917052       -4.4794601451
 C        -7.2593869128        4.4966452085       -7.3484095124
 C        -7.0666454532        2.1152953090       -6.3869651169
 C        -6.9439272085        6.6772583796       -0.4327522620
 C        -5.8792318631        4.9624120261        1.1835340026
 C       -12.3865042408        5.4813850792        3.6569910599
 C       -11.8228922595        7.8533235747        3.9747637432
 H        -9.0179745680        7.9711820971        4.4717455048
 H        -8.3596226878        6.8808485152        5.5978999105
 H        -9.8861491578        7.6584793870        6.0930518384
 H       -11.6171552953        6.2148667800        0.3550619249
 H       -11.1759125754        4.7764854422        1.2611682298
 H        -9.2735464408        6.4898238400       -0.5164557872
 H        -9.9034597691        4.8039251464       -0.6552247172
 H        -6.1969652472        5.4927789699       -2.7509600104
 H        -7.8885925047        4.9704455085       -2.7330344737
 H        -7.3403794378        2.7178635519       -3.5807850513
 H        -5.6165773977        3.0097622291       -3.3672362183
 H        -9.4081759435        1.9342018433       -4.4738054540
 H        -9.6148914294        1.9448335842       -6.2011243241
 H       -11.9779165027        2.2957164652       -5.3487691130
 H       -11.4523527240        3.7932066135       -5.7883709450
 H       -12.7766112038        2.3663894291       -1.6592357608
 H       -14.5679636873        2.7968696528       -1.9209979498
 H       -14.8661908512        3.7538425819        0.2532511253
 H       -13.0356922214        3.5615373888        0.5862703244
 H       -12.5147953885       -0.8255087720        1.7001201431
 H       -12.9864396501       -0.6718701318        3.4207985706
 H       -10.6179804542       -1.1988539531        3.3966034125
 H       -10.7403740194        0.3513504532        4.0416572130
 H        -6.6709987144       -1.1370751070        4.4065168928
 H        -6.4746988703        0.4052319414        5.2731970316
 H        -5.8295549510        0.2096526282        3.6311422536
 H        -8.5570620344       -1.9602254015        1.1131426884
 H        -8.7604090529       -2.3084702780        2.9491085734
 H        -7.1838913837       -1.9455864081        2.1279956354
 H        -8.1167951097        0.6729696646        0.3033055626
 H        -6.5017127440        0.1975311250        1.0993486300
 H        -7.4142689730        1.6903289637        1.4963527190
 H       -14.2788997369        3.4684304809        2.6731772151
 H       -15.1790700628        2.4200828023        3.8883324346
 H       -15.8795623273        2.9397118682        2.3764655443
 H       -15.1274033105       -0.3793794796        3.3538110450
 H       -15.3230518162       -0.4597816353        1.5949695950
 H       -16.4240641537        0.4517568446        2.6068407116
 H       -12.6837660377        6.7764603197       -3.5423834395
 H       -11.3829624701        6.0546170939       -4.4839268336
 H       -11.2066377259        6.0367054044       -2.7762683472
 H       -13.9923529875        3.3150109960       -4.5776211750
 H       -13.4873009849        4.7714646637       -5.3925919531
 H       -14.6756366747        4.8990675182       -4.0714759305
 H        -6.3480915752        4.2815506472       -7.9054310471
 H        -7.1790809912        5.5774502167       -7.1196932817
 H        -8.0633092153        4.3176465205       -8.2081142815
 H        -7.4711614497        1.5867037538       -5.5382358769
 H        -5.9886536164        1.9867372057       -6.5150422808
 H        -7.5695230236        1.6182109541       -7.2261935568
 H        -7.2701573310        7.3929452413        0.3501582144
 H        -7.6230389722        6.8938801028       -1.2649171688
 H        -5.9668117312        7.0056242273       -0.6895258444
 H        -4.8769850636        4.9452233759        0.8068697311
 H        -6.1372327498        3.9889167723        1.4272475947
 H        -5.8319322634        5.5108757712        2.0931333374
 H       -11.9327365148        4.5809964289        3.8789168600
 H       -12.8464968727        5.4443996896        2.7260340914
 H       -13.0733795966        5.7272429033        4.4958137520
 H       -11.1311737308        8.6796419254        3.9401850404
 H       -12.1876055995        7.7670892027        5.0160668954
 H       -12.6260425035        8.2480087338        3.3549702155
 Na      -10.0081756054        3.0657431074        3.2853588097
