117

 C        -9.7042682606        7.6316696410        4.7075145577
 C       -10.4002771371        6.6837126178        3.8342623608
 O       -10.2924420985        5.4480508613        3.9948322485
 C       -11.3382976963        7.1004153531        2.6601025400
 C       -10.6269761774        6.6496489874        1.3414699997
 O        -9.7518929778        7.3339203705        0.9592758618
 C       -10.8936124456        5.3033152936        0.5339484096
 C        -9.6582274975        4.8471647409       -0.2098579925
 C        -8.4157347610        4.9645053571        0.6564231563
 O        -8.4288832004        4.6917130806        1.8291755519
 C        -6.9393168632        5.2825209782        0.0035661556
 C        -6.6573090975        4.1814188862       -1.0931891683
 O        -6.4768055371        3.0159834893       -0.7978751558
 C        -6.5724298368        4.5602311193       -2.6158228797
 C        -6.5877390474        3.3857082405       -3.5394572012
 C        -6.6238911003        3.9009175606       -4.9964997582
 O        -5.9739568144        4.8480575601       -5.3952144689
 C        -7.6516025281        3.1407748984       -5.9871565845
 C        -9.0797695208        3.4131440246       -5.4250064988
 O        -9.5406415250        4.5154908065       -5.1164461956
 C        -9.9869699762        2.2548372576       -5.2559535151
 C       -11.3857054177        2.7171946214       -4.9228038876
 C       -11.5273751453        3.4754134941       -3.5774740763
 O       -10.6372197705        3.4271632595       -2.7469061659
 C       -12.8822034893        4.2771020680       -3.2972368210
 C       -13.3860191293        4.0790630053       -1.8605868534
 O       -13.8482521830        4.9894131805       -1.1939817980
 C       -13.4068108300        2.5984924334       -1.1837427886
 C       -14.2906348709        2.5543515926        0.1569416908
 C       -13.9159051731        1.2988839698        1.0086287861
 O       -13.5691923290        0.2111040663        0.5131649075
 C       -13.9276367375        1.4386108592        2.5848070098
 C       -12.4553835825        1.1852839934        3.0817964136
 O       -11.7939617831        2.1886599315        3.2897857639
 C       -11.8494147768       -0.2669941948        3.2958333321
 C       -10.3290718590       -0.3320244222        3.5019570916
 C        -9.5170575308        0.3773879989        2.4115950563
 O        -9.9964493050        0.9023495733        1.4524848697
 C        -7.9717057960        0.3574265692        2.6494145618
 C        -7.6210424591        1.1351857111        3.8792832736
 O        -8.1652203858        2.1690451285        4.1673437946
 C        -6.5426405233        0.5613062791        4.8284388023
 C        -7.4345377577       -1.1563689344        2.6332415773
 C        -7.3921827938        1.1289924370        1.4765343700
 C       -14.3402183812        2.7929886188        3.1475659795
 C       -14.9512152175        0.3642707013        2.9219162728
 C       -12.7507284500        5.7644824479       -3.5611490208
 C       -14.0445778225        3.7270998668       -4.1946184795
 C        -7.6030160119        3.8360829229       -7.3626368712
 C        -7.3171170251        1.6334880878       -6.1086510726
 C        -7.0244127064        6.7890980576       -0.5010057956
 C        -5.9046773917        5.0546700360        1.1581620506
 C       -12.7674687930        6.5264189755        2.8755414982
 C       -11.4211262754        8.6757585463        2.4845889893
 H        -8.8382981823        8.0900852129        4.1022810891
 H        -9.3411150347        7.0338499932        5.5342174516
 H       -10.3247674091        8.4283891599        5.0637353112
 H       -11.5868779354        5.4652866926       -0.2660579910
 H       -11.2973086296        4.5586512288        1.2169931839
 H        -9.5759036150        5.4888193613       -1.0902771535
 H        -9.6517004865        3.8510946754       -0.5737524472
 H        -5.6362522506        5.0913051556       -2.6434977047
 H        -7.3122523105        5.3265776126       -2.9599561971
 H        -7.4461682713        2.7696965164       -3.3046407352
 H        -5.7061496677        2.7817330764       -3.4120127312
 H        -9.5921687167        1.5939744755       -4.4052616466
 H        -9.9932564992        1.5536619107       -6.1202097355
 H       -12.0784504772        1.8613999497       -4.7135178175
 H       -11.7359912642        3.3543673179       -5.7408598780
 H       -12.4190695192        2.4003351037       -0.9109121275
 H       -13.6610585932        2.0186981100       -2.0603005580
 H       -15.3257329728        2.4108586312       -0.0527514454
 H       -14.2364206152        3.4117541521        0.7655675619
 H       -12.1126592432       -0.8089579751        2.4091298593
 H       -12.2312920958       -0.8357407152        4.1317813220
 H        -9.9490793300       -1.3784806269        3.5638369056
 H       -10.1527771176        0.1654679843        4.4688753752
 H        -6.7558572121       -0.4161125223        5.1752695577
 H        -6.3563654792        1.2301536347        5.6731834065
 H        -5.5759131953        0.4896807205        4.2639941315
 H        -7.6780099134       -1.6335742089        1.6812848778
 H        -7.8735043891       -1.6709468004        3.4070859527
 H        -6.3576917615       -1.0669573299        2.5966290325
 H        -7.4736515768        0.3625405968        0.6894348843
 H        -6.3021691497        1.2065892062        1.6487583227
 H        -7.9002620544        2.0627953522        1.2749464856
 H       -13.6551267528        3.5481444668        2.8530471748
 H       -14.2502097018        2.7207542421        4.2356727420
 H       -15.3640330191        3.0128252050        2.8184145361
 H       -14.9241250101        0.1071926407        3.9368701139
 H       -14.6984455826       -0.5179599766        2.3376280403
 H       -15.9539734673        0.6719110405        2.6040798966
 H       -13.5236969671        6.2016748977       -3.0110205988
 H       -12.8884178454        6.1836333013       -4.5102021208
 H       -11.8038024589        6.2712841917       -3.2478274124
 H       -14.0896615305        2.6667236212       -4.3629148034
 H       -13.9538565143        4.1884730591       -5.1996094432
 H       -14.9899744782        3.9195960194       -3.7842332857
 H        -6.5508170615        3.7632622799       -7.6445400495
 H        -7.8885642872        4.8704957382       -7.3020513141
 H        -8.2108268097        3.5641980128       -8.1032016198
 H        -7.4191776483        1.0400017725       -5.2413503225
 H        -6.2730493162        1.4936014996       -6.5150469443
 H        -7.9302468674        1.1615320176       -6.8570686026
 H        -7.4192123358        7.5184773679        0.1880322816
 H        -7.7511593956        6.7525579763       -1.3374902112
 H        -6.0720296498        7.0213225628       -0.9536290603
 H        -5.0225209301        5.6523432989        1.0586062619
 H        -5.6019972118        4.0106014121        1.1869750714
 H        -6.3715913895        5.3459336984        2.0676277709
 H       -12.9039975825        5.4043715862        2.8076978781
 H       -13.4563918048        6.9965548507        2.1109373430
 H       -13.0835507379        6.7875364282        3.8602622910
 H       -10.3768117712        9.0635040521        2.4042046942
 H       -11.8848237081        9.2312905301        3.2672450254
 H       -11.8117661518        9.0075738065        1.4768011937
 Na       -9.9885998444        3.4177446176        3.2551853794
