117

 C       -10.1534275592        8.0860846700        4.6489391938
 C       -10.6337101135        6.9695761052        3.6587307809
 O       -10.5771338059        5.7937699278        3.9409312065
 C       -11.3867204424        7.4778147619        2.3421120125
 C       -10.3165261645        6.9169747644        1.2779053517
 O        -9.3285324518        7.6352804428        1.0158178364
 C       -10.5385621198        5.4868311176        0.7808174056
 C        -9.4700297583        4.8169149710       -0.1325399050
 C        -8.1071949941        4.7879386495        0.6591998051
 O        -8.0236566960        4.1969621009        1.7307105314
 C        -6.8202985945        5.3227049133       -0.0581928544
 C        -6.7319813665        4.1988252537       -1.2219096575
 O        -6.4527224540        3.0472604070       -0.9510909682
 C        -7.0303812500        4.6175968656       -2.6781960273
 C        -6.9139208279        3.4122628396       -3.5611475863
 C        -6.8105127750        3.8630486973       -5.0251057139
 O        -6.0996347262        4.7705619057       -5.3445519353
 C        -7.7168270519        3.0700421489       -6.0385658292
 C        -9.2615784947        3.3591664076       -5.6530874332
 O        -9.5946414445        4.5137242231       -5.5902465827
 C       -10.1953800651        2.1835227991       -5.2813301632
 C       -11.6265733983        2.5983839548       -5.0774691137
 C       -11.8487416862        3.1596043356       -3.6363811716
 O       -11.1746113637        2.7489283264       -2.7138109341
 C       -13.2383913297        3.9122699780       -3.3955941476
 C       -13.7328621392        3.7181353113       -1.8570621919
 O       -14.2864871034        4.6371437474       -1.2960102393
 C       -13.4851211516        2.4516650774       -1.0787746682
 C       -13.9645444747        2.4989886969        0.3731455529
 C       -13.6653644858        1.2576808748        1.1657780343
 O       -13.3323050248        0.2223512099        0.6555625443
 C       -13.8676573994        1.3323103901        2.7203118541
 C       -12.3774493156        1.2741557324        3.3335035535
 O       -11.7847261330        2.3383995036        3.5192829702
 C       -11.7251415907       -0.1018470857        3.1792692091
 C       -10.2972115710       -0.2390911307        3.6001162001
 C        -9.3044158246        0.4955024560        2.6337537892
 O        -9.7324592690        1.1295749157        1.6613119327
 C        -7.7809391382        0.4282709606        2.8940480239
 C        -7.4476135081        1.3231024923        4.1634421335
 O        -8.3436661462        2.1001462974        4.5671991263
 C        -6.2853127473        0.9414231705        5.0598484006
 C        -7.3795776978       -1.0231443083        3.1322373727
 C        -7.0378362721        1.1342717151        1.7215619023
 C       -14.5743698843        2.6000928961        3.3049496257
 C       -14.6785392564        0.0758509267        3.0280351485
 C       -12.9927075519        5.4305827662       -3.6727335520
 C       -14.3541867947        3.4682945079       -4.4079034462
 C        -7.4179355980        3.6542925892       -7.4632936948
 C        -7.2775146250        1.5601002874       -5.9095385523
 C        -6.9388594300        6.8346813841       -0.6185324495
 C        -5.5260880925        5.2381511674        0.8060854148
 C       -12.7698044069        6.8645494446        2.2200029995
 C       -11.4122065756        8.9759493989        2.0830296445
 H        -9.7742171081        8.9092947595        4.1219024345
 H        -9.5179870133        7.6831863086        5.4612760104
 H       -10.9772087626        8.3888843560        5.3178793644
 H       -11.5086194989        5.4147773884        0.3064940947
 H       -10.6001640742        4.9228140810        1.7115454253
 H        -9.2947240103        5.3213893932       -1.0507932004
 H        -9.7635428322        3.7897141175       -0.3087115477
 H        -6.2606141009        5.3407597893       -3.0520191657
 H        -8.0168224823        5.0366212039       -2.7424681623
 H        -7.6329595503        2.6930366282       -3.3432872400
 H        -5.9304012577        2.9201443063       -3.3313101292
 H        -9.7504533656        1.7053804277       -4.3471630704
 H       -10.2011682976        1.2602157677       -5.8883765599
 H       -12.3573426957        1.7715703461       -5.2456241184
 H       -11.8836908103        3.3963818168       -5.8049696760
 H       -12.4484095793        2.1869594380       -1.1660457487
 H       -14.0202423974        1.7303194437       -1.6504336738
 H       -14.9402711280        2.7472634930        0.5752512917
 H       -13.4522031680        3.2211551433        1.0006557356
 H       -11.7351781871       -0.3743904162        2.1201761884
 H       -12.3484177498       -0.8968940298        3.5245758226
 H       -10.0154753488       -1.3197031144        3.6279891796
 H       -10.1431067599        0.1275769510        4.6200324771
 H        -6.3068999788       -0.0808306338        5.5209227047
 H        -6.0585188273        1.6991588562        5.7927529913
 H        -5.4622549421        0.9422701642        4.4210130324
 H        -7.9366047300       -1.6477626499        2.4746330114
 H        -7.4380744391       -1.3285297882        4.1999042785
 H        -6.3423699684       -1.0893838772        2.8778211378
 H        -7.3337836550        0.6697584848        0.7688763861
 H        -5.9878820257        1.2041976813        1.9704901080
 H        -7.4776867501        2.1439822906        1.7544653145
 H       -14.0080934348        3.4872984546        3.0842975982
 H       -14.9160310325        2.4801321667        4.3246354948
 H       -15.4950129544        2.6883479763        2.7082959124
 H       -15.0222696510        0.0929418386        4.0825430628
 H       -14.1470825421       -0.7823273878        2.7123134092
 H       -15.5509668072        0.1271732140        2.4771119442
 H       -13.8813878510        6.0639577861       -3.5579738975
 H       -12.7600211864        5.7073429286       -4.7017388357
 H       -12.2422177574        5.8260505218       -3.1107131372
 H       -14.4965035851        2.4208512598       -4.2709183518
 H       -14.0832117397        3.5578511804       -5.4511374183
 H       -15.3157868061        3.9919554751       -4.3619045077
 H        -6.4587310320        3.4193572163       -7.7707355588
 H        -7.4249974431        4.7162907569       -7.4166333336
 H        -8.1252820038        3.2990547841       -8.2923515836
 H        -7.6470683792        1.1654362360       -4.9233977589
 H        -6.2734964114        1.3969604377       -6.0450700612
 H        -7.8389789659        0.9452324326       -6.6196501390
 H        -7.0821295243        7.5238320895        0.1980058817
 H        -7.6947701959        7.0060918221       -1.3322049862
 H        -5.9248897645        6.9796654414       -1.0390613259
 H        -4.6701696501        5.2336384209        0.2045104297
 H        -5.5853438717        4.3696529160        1.4284067242
 H        -5.4347787298        6.1131401911        1.4009757252
 H       -12.7050020591        5.8071679557        2.5073410535
 H       -13.2490619826        6.8626741649        1.2419862060
 H       -13.5102613488        7.3552847709        2.9153397586
 H       -10.4433724195        9.4907396327        2.0588605496
 H       -12.0182759729        9.4556854754        2.9167902356
 H       -11.8960299309        9.2551221901        1.1674331550
 Na       -9.8022663052        3.4842355294        3.1422826009
