117

 C        -9.9019906195        7.8741218438        4.6354601457
 C       -10.5046579299        6.7966152277        3.7546028800
 O       -10.3716382588        5.6480665287        4.0976650883
 C       -11.2994151313        7.3298525329        2.4488001180
 C       -10.4734037406        6.7340393835        1.2175469489
 O        -9.4605889836        7.4061190435        0.8853133464
 C       -10.8198628656        5.3583926431        0.6485109501
 C        -9.6018191108        4.8340666010       -0.1384130620
 C        -8.2710970833        4.9076343302        0.6892679452
 O        -8.3529780385        4.4864726935        1.8583824679
 C        -6.9939079456        5.2789131995        0.0037097994
 C        -6.7403624209        4.1429448105       -1.1149587571
 O        -6.5030156674        3.0193062399       -0.7668741853
 C        -6.7804031640        4.5984054235       -2.5574817112
 C        -6.6735228376        3.4233553423       -3.5571905621
 C        -6.6909431009        3.9736621115       -5.0452194102
 O        -5.9741971770        4.8670470591       -5.3939632573
 C        -7.6732662830        3.1058590160       -6.0120126815
 C        -9.1601822076        3.4222891410       -5.5503483511
 O        -9.3822922557        4.5814906103       -5.3022004819
 C       -10.1326740632        2.3343552395       -5.3056102146
 C       -11.6159613622        2.6111554713       -4.9635608547
 C       -11.7398195201        3.2674934219       -3.5643454846
 O       -10.7600484222        3.3560306567       -2.8714925217
 C       -13.0476096519        4.0943217602       -3.2959692024
 C       -13.6666884336        3.8884834368       -1.8449290700
 O       -14.1555969806        4.8334638256       -1.3043710097
 C       -13.4973047301        2.5768254902       -1.0968769212
 C       -14.1269893684        2.5130518142        0.2079948810
 C       -13.7730928063        1.2782582724        1.0226268156
 O       -13.3007729207        0.3077463334        0.4794037517
 C       -13.8867188903        1.3815383639        2.6877965457
 C       -12.4642931033        1.0928605516        3.1057142755
 O       -11.7445902576        2.0796774830        3.2534742574
 C       -11.9944100177       -0.3160389520        3.2359251218
 C       -10.4237369353       -0.3327011016        3.5680129825
 C        -9.4945037658        0.3745381482        2.4983298889
 O       -10.0122246710        0.8808959351        1.5007186248
 C        -7.9232153010        0.4035582898        2.7081788299
 C        -7.5689854281        1.1939294432        3.9990759110
 O        -8.2065452222        2.2123375210        4.2934158806
 C        -6.4469109008        0.7826992365        4.8811914174
 C        -7.4594562312       -1.0374431707        2.7947956101
 C        -7.1223822003        1.1020652391        1.5245590424
 C       -14.4094166043        2.7520769552        3.1927891521
 C       -14.7857142785        0.2246433974        3.1922128375
 C       -12.6123747864        5.5470170477       -3.5882012249
 C       -14.2073757429        3.6032828901       -4.1372320553
 C        -7.5536044886        3.7221262531       -7.4083206035
 C        -7.2722565971        1.6180448989       -6.0213119097
 C        -6.9364368179        6.7014970345       -0.6097577036
 C        -5.8086154866        5.2516449234        1.0530537499
 C       -12.7211134103        6.7142604141        2.5559068593
 C       -11.4309240961        8.7751989699        2.4460624221
 H        -9.0529208527        8.2365750764        4.1963990069
 H        -9.7534111275        7.4216525461        5.6710787244
 H       -10.5907646040        8.7607300219        4.8700312365
 H       -11.7219853966        5.4847748976       -0.0133016203
 H       -11.0463350632        4.6828641596        1.4907895346
 H        -9.4270522126        5.4559433038       -1.0291693479
 H        -9.7022985960        3.7529751718       -0.4734488724
 H        -5.9406206654        5.3260019288       -2.7324673612
 H        -7.6898650833        5.1884775548       -2.6552274545
 H        -7.4793582877        2.6597892463       -3.3693428559
 H        -5.6960483253        2.9276274566       -3.3386560938
 H        -9.7872961020        1.7660079885       -4.4958064538
 H       -10.0821805921        1.5658268256       -6.0602776551
 H       -12.1495712225        1.6617972891       -4.9583297631
 H       -12.0630174809        3.3296414571       -5.6757141382
 H       -12.3549010819        2.5350560434       -1.0449203822
 H       -13.7645585474        1.8191932351       -1.8358728870
 H       -15.2378609623        2.5685374222        0.0616131702
 H       -13.9661698864        3.3397849247        0.9269914809
 H       -12.3093927680       -0.9012362546        2.3071654217
 H       -12.5081746206       -0.8775675985        4.0722971097
 H       -10.0421715635       -1.3194323072        3.7124467248
 H       -10.3326245826        0.1890754533        4.5287953891
 H        -6.8422940533       -0.1461082653        5.4210812723
 H        -6.1840077323        1.5335423506        5.6187984923
 H        -5.5157728315        0.5375325998        4.3559208329
 H        -7.5370017932       -1.3952555030        1.7860434552
 H        -8.1640597977       -1.6501959654        3.4503109289
 H        -6.4242617859       -1.1336285711        3.0837073338
 H        -7.5555624020        0.8118186873        0.5980352782
 H        -6.0448069661        0.9850598889        1.6005664223
 H        -7.3991402886        2.1422636571        1.7483960416
 H       -13.6426849549        3.5423934405        2.9196403279
 H       -14.4240787057        2.6240980968        4.2556316388
 H       -15.3588289291        3.0299171605        2.8102077015
 H       -14.4454742195        0.0575677543        4.2447779127
 H       -14.8276300970       -0.6928074623        2.5773509126
 H       -15.8191593626        0.5864080942        3.2938634752
 H       -13.3747636668        6.2977350041       -3.8723450170
 H       -12.0054375942        5.6340704758       -4.5004668349
 H       -11.9328089829        5.9393205751       -2.8759782638
 H       -14.5681747714        2.5816647300       -3.8937819801
 H       -14.0524048691        3.6148833775       -5.1940881641
 H       -15.1143649770        4.2475572266       -3.9203755023
 H        -6.5310078583        3.9771238734       -7.6023853828
 H        -8.2266297550        4.5311905956       -7.7172703409
 H        -7.8924284610        2.9218969867       -8.1745800389
 H        -7.3234550169        1.1005089025       -5.0405937633
 H        -6.3000536252        1.6016935717       -6.4544228104
 H        -7.8707422682        0.9420373138       -6.6389374621
 H        -7.0624832355        7.3160751077        0.2903522145
 H        -7.7809905854        6.9963486506       -1.2223034485
 H        -5.9458303696        6.8350327819       -1.0603514207
 H        -4.8220589546        5.4470372823        0.5415375928
 H        -5.8072926811        4.2526728066        1.5059562992
 H        -5.8500578304        6.0838269850        1.8215633762
 H       -12.6122583091        5.6547752957        2.6787344230
 H       -13.2291038422        6.8410750418        1.6201379306
 H       -13.3790486845        7.0509863573        3.4343744540
 H       -10.5654702884        9.3696489997        2.3095912526
 H       -12.0027716690        9.1213509074        3.3374387782
 H       -11.9815254783        9.0341516289        1.5879097876
 Na       -9.8212812316        3.4170438829        3.2483366338
