117

 C        -9.3168447960        7.3109827674        4.6558100041
 C       -10.3029029892        6.3576173598        4.0103947091
 O       -10.2314675517        5.1200188932        4.2546544177
 C       -11.4059329092        6.8730067533        2.9167311489
 C       -10.6070719156        6.7963796342        1.5564472666
 O        -9.9481687554        7.7270546854        1.1192449254
 C       -10.7002565578        5.3844640949        0.8185959210
 C        -9.6186770049        4.9013521085       -0.1071868021
 C        -8.2764406981        4.7343278393        0.6777630349
 O        -8.2411321933        4.2066079487        1.7671124219
 C        -6.9572027679        5.2669254336        0.0087088793
 C        -6.7259407605        4.1939064484       -1.1224633616
 O        -6.5900084929        3.0509114424       -0.8059564968
 C        -6.6134467650        4.5756376168       -2.5608605021
 C        -6.5858130040        3.4282561738       -3.5290464485
 C        -6.4879225160        3.9696562606       -5.0413411734
 O        -5.6408823378        4.7432228767       -5.3548308877
 C        -7.5770363323        3.3784144098       -5.9428347845
 C        -8.9862101549        3.5720027984       -5.2214996189
 O        -9.3321839311        4.7442597827       -5.0632092544
 C        -9.8574329437        2.2993693360       -4.9069510766
 C       -11.3668823163        2.6669511022       -4.8208260227
 C       -11.6114123730        3.4835621779       -3.5692464507
 O       -10.7327691046        3.3706269944       -2.7263325266
 C       -12.8433913230        4.2952287752       -3.3373188916
 C       -13.1376308496        4.1838105728       -1.7457005798
 O       -13.1200926010        5.1442820524       -1.0512907668
 C       -13.3530039643        2.6967097673       -1.2897748306
 C       -14.0582612951        2.7154229143        0.0449175550
 C       -13.9203346060        1.3430043888        0.8403890408
 O       -13.7396405762        0.2313265250        0.3614505323
 C       -14.1215030110        1.4466355966        2.4166172801
 C       -12.7010440630        1.3710062095        2.9829177102
 O       -12.1016421110        2.3690446118        3.3835084184
 C       -12.1564047194       -0.0612179572        2.8763151209
 C       -10.6396417468       -0.1887521981        3.2348928893
 C        -9.5702256316        0.4811264804        2.2617761487
 O       -10.0022183397        1.2617482185        1.4153052447
 C        -8.0842128499        0.3475521005        2.4312193966
 C        -7.6372348035        1.0020468999        3.7613232591
 O        -8.2253154664        1.9584167319        4.2121469324
 C        -6.6251758466        0.3095922744        4.6109069466
 C        -7.8158424702       -1.1826524100        2.3483467425
 C        -7.3601695378        1.1900914920        1.3395132662
 C       -14.7601575037        2.7764758879        2.8541378575
 C       -15.0888920805        0.2892997652        2.9092809054
 C       -12.4092509624        5.8049025312       -3.6095982320
 C       -14.2473747025        4.0907647085       -4.0103187513
 C        -7.5983636157        4.0757614980       -7.3333535780
 C        -7.1893223168        1.8959588285       -6.1336493818
 C        -7.0332091231        6.7474388532       -0.5488954029
 C        -5.8830423951        5.1448112207        1.1107634053
 C       -12.6792910735        5.9804242247        2.9084821575
 C       -11.7411007662        8.3740903309        3.1542633341
 H        -9.0599971038        8.0657030306        4.0171524157
 H        -8.3510740515        6.7513317358        4.8697075505
 H        -9.8274098045        7.8517665918        5.5103433372
 H       -11.6157128878        5.3947146380        0.2278011900
 H       -10.8254146959        4.5561225646        1.5311425055
 H        -9.4092376522        5.6025689821       -0.9407002368
 H       -10.0312638297        4.0473278924       -0.6084497174
 H        -5.7178351666        5.1643185606       -2.6976270459
 H        -7.3937480653        5.3698191392       -2.8162171737
 H        -7.5369575628        2.8322843342       -3.4199126426
 H        -5.7751659356        2.7586552775       -3.2681386758
 H        -9.5101732173        1.8013972938       -3.9851897984
 H        -9.8039628211        1.5679519906       -5.7077584643
 H       -11.9780344083        1.7107064150       -4.7759560340
 H       -11.6097170510        3.3029899113       -5.6917577734
 H       -12.3750093609        2.2543916984       -1.2335472574
 H       -13.9910738098        2.2168789862       -2.0500569311
 H       -15.0883122565        3.0084775738       -0.0898369386
 H       -13.5474916982        3.2997188752        0.7390413755
 H       -12.2450303723       -0.4693348386        1.8675359269
 H       -12.6809779176       -0.6871217177        3.6184418071
 H       -10.4590771900       -1.2608743610        3.3711464965
 H       -10.4430844773        0.3463110651        4.1702862222
 H        -7.1085402200       -0.5380688683        5.0809842892
 H        -6.3049345655        0.9670566053        5.4128009874
 H        -5.7752789522       -0.1259834508        3.9574256213
 H        -7.9743615526       -1.4639164974        1.3029002416
 H        -8.5312421280       -1.7177651617        2.9075829665
 H        -6.7640389465       -1.3433433068        2.6129217299
 H        -7.8278797391        0.9343992759        0.4148341899
 H        -6.3133447684        0.9202749119        1.1843546311
 H        -7.5435050503        2.2481176542        1.6021574701
 H       -14.0434417490        3.6120039689        2.8339291604
 H       -15.0779631149        2.7084299353        3.8885597646
 H       -15.6302485855        2.9018568473        2.2454310522
 H       -14.8828872772        0.0014167415        3.8955725607
 H       -14.9004002813       -0.6370935191        2.3319665434
 H       -16.1674846054        0.5944903716        2.7255860543
 H       -13.2230562140        6.4626850273       -3.5415004733
 H       -11.9208527586        6.0267520132       -4.5267632270
 H       -11.7574564945        6.2743393651       -2.8092244540
 H       -14.8312113426        3.1971402971       -3.6776141257
 H       -14.0807140820        4.0029938517       -5.1105000160
 H       -14.8643794813        4.9721865765       -3.8581153500
 H        -6.6587788418        3.9465720403       -7.8706798165
 H        -7.7997439824        5.1417707298       -7.2751729513
 H        -8.3475667147        3.7664119377       -7.9977916960
 H        -7.1411868876        1.4143819513       -5.2169778987
 H        -6.1912299024        1.5872098746       -6.5643570268
 H        -7.9469138513        1.4599162097       -6.7441347978
 H        -7.2399779059        7.4602324977        0.2560792354
 H        -7.7432251187        6.8870712049       -1.4029316284
 H        -6.0775179748        6.9847257048       -0.9917257412
 H        -4.8172869975        4.9187427745        0.8101955873
 H        -6.1269787740        4.3382627703        1.8054674915
 H        -6.0020861783        6.0843855327        1.7012715216
 H       -12.4308976082        4.9058323288        3.0994760433
 H       -13.1366702521        6.0506980496        1.8815329813
 H       -13.4138906350        6.4348986683        3.5762421368
 H       -10.9037975187        9.0138475369        2.8588389792
 H       -11.8392768470        8.6092438995        4.1815688638
 H       -12.6933598372        8.7135168620        2.6824319771
 Na       -9.9763809797        3.0487254303        3.0050576071
