117

 C        -9.5884469207        7.5362696578        4.7229764935
 C       -10.3858355275        6.5748396200        3.8397203811
 O       -10.3051397447        5.3843825396        4.1142589663
 C       -11.3404177138        7.0716134350        2.6641203057
 C       -10.6591420205        6.5944040221        1.3047459229
 O        -9.7518132740        7.3200034497        0.8705479964
 C       -10.9189223822        5.2824300417        0.6214391882
 C        -9.6522847461        4.9982463079       -0.2530879476
 C        -8.4310796864        4.9125330231        0.6587996392
 O        -8.4871449819        4.6412624059        1.8590038553
 C        -7.0813240274        5.2197496264       -0.0072382668
 C        -6.6813433697        4.1557401166       -1.1373793100
 O        -6.4658969549        3.0341465521       -0.7638806872
 C        -6.4833803839        4.6391798674       -2.5558763978
 C        -6.5730936496        3.4418500004       -3.5281972221
 C        -6.5761550877        3.9206188866       -5.0291945608
 O        -5.8863899398        4.8520703072       -5.3434340194
 C        -7.6041923785        3.2372095856       -5.9606070364
 C        -9.1028346475        3.3475664358       -5.3595419790
 O        -9.4542679387        4.4879048670       -5.1047167955
 C       -10.0786196287        2.1680381075       -5.1454166809
 C       -11.4567488906        2.7412284684       -4.8346963987
 C       -11.5261658476        3.5371069799       -3.4885550206
 O       -10.7075508693        3.5069839505       -2.6065545699
 C       -12.8989048391        4.2970181460       -3.3056209163
 C       -13.3595892945        4.0302386878       -1.8081129472
 O       -13.5118855254        5.0217959551       -1.1554454753
 C       -13.3298667443        2.6060133904       -1.2701378219
 C       -14.1799127464        2.5768494039        0.0181683489
 C       -13.8528056552        1.3602791813        0.8838399126
 O       -13.6922384034        0.2438657929        0.4159979811
 C       -13.9559492729        1.4430901788        2.5052373985
 C       -12.5419021441        1.2315192281        3.0141607427
 O       -11.8450444196        2.1582321901        3.4090914989
 C       -12.0543601157       -0.1844013436        3.1667400604
 C       -10.5241001003       -0.2934163220        3.5468633788
 C        -9.5221571668        0.3360260641        2.4254025739
 O       -10.0355139303        0.9348351929        1.4763388497
 C        -7.8945577435        0.3044728259        2.5122687155
 C        -7.6683463265        1.0764034294        3.8911546495
 O        -8.1983351397        2.1527564673        4.1620909579
 C        -6.5585943205        0.5180096813        4.7954248524
 C        -7.4149131179       -1.1181985741        2.5230977070
 C        -7.3077951147        1.1639413542        1.2806484744
 C       -14.4655601136        2.8320205164        3.1280897399
 C       -14.9264822589        0.3305717504        3.0315641668
 C       -12.7178873309        5.8563189466       -3.5184090147
 C       -13.9937077828        3.7675705815       -4.2407136185
 C        -7.5404490029        3.9063516495       -7.3170330846
 C        -7.3332719171        1.7187925622       -6.1729541179
 C        -7.0802643392        6.6558349633       -0.4451287678
 C        -5.9723259047        5.0579442556        1.1008198300
 C       -12.7418188402        6.4503412549        2.9143802854
 C       -11.4903815209        8.5769877383        2.6407285332
 H        -9.0325359945        8.1314440699        4.1573990556
 H        -8.9697260686        6.9580732848        5.4454429387
 H       -10.3276462127        8.2061007247        5.2230393323
 H       -11.7601320534        5.4038431609       -0.0680172957
 H       -11.1428805481        4.5188920293        1.3433578736
 H        -9.5476446771        5.6894917572       -1.0781267944
 H        -9.6469320787        4.0169184625       -0.7431439678
 H        -5.5793318171        5.2002928982       -2.5340536647
 H        -7.2285760353        5.4167702826       -2.7882381396
 H        -7.4830073229        2.8729808668       -3.2360844560
 H        -5.7751385892        2.8142636870       -3.3598088649
 H        -9.6881831032        1.5178591282       -4.3452586636
 H       -10.0988449086        1.4914325582       -6.0650695762
 H       -12.2398973595        2.0359807015       -4.7005405877
 H       -11.6570887468        3.4486219170       -5.6328047191
 H       -12.2852696800        2.5083798211       -1.0138543757
 H       -13.5456980453        1.9950579974       -2.1166295359
 H       -15.2501817651        2.3467509637       -0.2866087601
 H       -14.1668624144        3.4639275139        0.6223443034
 H       -12.2145119896       -0.7460147465        2.2670946943
 H       -12.5700175816       -0.6683965444        3.9808615326
 H       -10.2308101949       -1.3421963740        3.6557473207
 H       -10.3699966872        0.2735263974        4.5110547676
 H        -6.9394656973       -0.4557678916        5.0239904043
 H        -6.5218206508        1.0048537904        5.7163690496
 H        -5.5337437325        0.3845978665        4.3828307311
 H        -7.9199428178       -1.7841711367        1.8346461984
 H        -7.5825679875       -1.4874580070        3.5321584050
 H        -6.4067214524       -1.0039330410        2.1549715842
 H        -7.3902933657        0.5886338125        0.3959958035
 H        -6.2046241258        1.2350152172        1.4443709685
 H        -7.8568981673        2.1399901144        1.3021606771
 H       -13.6932725901        3.6627756116        2.9445148151
 H       -14.5404154696        2.7513876307        4.1957067385
 H       -15.3927518125        3.0275604621        2.6647093226
 H       -15.1230234203        0.4132082101        4.0509084116
 H       -14.5071869996       -0.6538332391        2.8670052217
 H       -15.8151610349        0.3820939121        2.3851253399
 H       -13.3581188710        6.4886585779       -2.8993280040
 H       -12.8604695754        6.2561194173       -4.5063969877
 H       -11.6773691087        6.1977365939       -3.3175178419
 H       -14.1881023258        2.6951317029       -4.1494864059
 H       -13.9039997385        3.9920298454       -5.2607047001
 H       -14.9184066429        4.1499608992       -3.8299411424
 H        -6.6604409051        3.5594676449       -7.8184141492
 H        -7.5850102346        4.9932889585       -7.3396502175
 H        -8.4126526175        3.7846774205       -7.9984866914
 H        -7.4674331611        1.0744897550       -5.3202444794
 H        -6.3002576002        1.4680056419       -6.5403132862
 H        -7.9721758085        1.3721245301       -6.9846707355
 H        -7.3187736257        7.3306503215        0.3905795014
 H        -7.7869800073        6.9143377122       -1.2590159237
 H        -6.1000522324        6.7860005626       -0.8176406096
 H        -5.0410919946        5.5643937631        0.8742182039
 H        -5.7357545863        4.0610569190        1.0859939672
 H        -6.3175596746        5.3337093855        2.0753395867
 H       -12.5436955578        5.4043082189        2.9577805492
 H       -13.5329810934        6.6139690611        2.2150875568
 H       -13.0425523410        6.7022294780        3.9565558240
 H       -10.5773197782        9.1445723123        2.4918226668
 H       -11.9212205088        8.9741926434        3.5777640467
 H       -12.1257784071        8.8935949669        1.8025775860
 Na       -9.8454485012        3.3983627299        3.1214327812
