117

 C       -10.4811979451        7.9132189894        4.8010123495
 C       -10.7948385071        6.9717277760        3.6240917028
 O       -10.5015795716        5.7742032507        3.7171400635
 C       -11.3845341967        7.4904459270        2.2397481071
 C       -10.4434828499        6.9354069623        1.1942152305
 O        -9.4081405002        7.5419778642        0.9190851965
 C       -10.6022630203        5.4696049115        0.6014883001
 C        -9.3156843104        5.0353262038       -0.1238815457
 C        -8.0924926938        4.9772329127        0.7309641618
 O        -8.0676111695        4.5268759713        1.8514017245
 C        -6.7315086115        5.2854516541       -0.0333489808
 C        -6.5534798293        4.1668218313       -1.2240962616
 O        -6.1352967836        3.0561925551       -0.9181719791
 C        -6.8112830337        4.5876313908       -2.6753557038
 C        -7.0743832966        3.3528092224       -3.6101258351
 C        -6.9314646587        3.7531249111       -5.1303978636
 O        -6.2380545093        4.6570381877       -5.4763999397
 C        -7.7978969106        2.9687515214       -6.2783970522
 C        -9.2901619174        3.2517884499       -5.8832075928
 O        -9.6978924937        4.3685914056       -5.9125101084
 C       -10.2271830507        2.1471430614       -5.4093529193
 C       -11.6414665348        2.7193918980       -5.1438741575
 C       -12.0271931229        2.9298209045       -3.7111291398
 O       -11.3028086079        2.6419428027       -2.7728379051
 C       -13.3771288867        3.6588505292       -3.4001875089
 C       -13.7173637088        3.6204370380       -1.9286770549
 O       -14.1909014358        4.6222229945       -1.4320437923
 C       -13.8012009392        2.3296727668       -1.1345561535
 C       -13.9311539953        2.5622854419        0.3991506955
 C       -13.6755649384        1.2330995705        1.1526607895
 O       -13.4304421155        0.2662888719        0.5373663319
 C       -13.8718085509        1.2384214522        2.7966212495
 C       -12.3977403719        1.2796435203        3.3159724968
 O       -11.8660888561        2.3340112283        3.6522206538
 C       -11.6538737395       -0.0077395262        3.3626138677
 C       -10.1826825813        0.0901890802        3.7188552872
 C        -9.1509982212        0.8162828641        2.7968664484
 O        -9.4466458236        1.6381685439        1.9335845993
 C        -7.5666150152        0.5235998759        3.0580180748
 C        -7.4038181405        1.4355241223        4.3459382165
 O        -8.1662499566        2.3884644585        4.5792898398
 C        -6.2022325922        1.2030890539        5.2193767183
 C        -7.2791671051       -0.9399903338        3.3711459710
 C        -6.6933772271        1.1527276779        1.9700634109
 C       -14.6324370162        2.5550959120        3.1685819595
 C       -14.6805931553       -0.0533363407        3.2638525369
 C       -13.0389939029        5.0643376311       -3.8712955944
 C       -14.6374192528        3.0829822956       -4.1338643601
 C        -7.5255688721        3.5466660337       -7.7181077901
 C        -7.5089473137        1.4350151108       -6.1702498864
 C        -6.7162897529        6.7349996270       -0.5648159700
 C        -5.4902065009        5.0934239742        0.8978908118
 C       -12.7889783992        6.9521589599        2.0712093148
 C       -11.3979982158        9.0559507558        2.2150275564
 H        -9.7344081781        8.6628935397        4.5228038970
 H       -10.3158866877        7.3576087004        5.7182627745
 H       -11.3654599958        8.4078713287        5.0991245389
 H       -11.4329769043        5.3027375926       -0.0899025937
 H       -10.8139505015        4.7812985704        1.4658614956
 H        -9.1564070590        5.6082931229       -1.0721753074
 H        -9.4031861402        3.9777833605       -0.4149121478
 H        -5.8920747861        5.0462512251       -3.0409630432
 H        -7.6730292214        5.2597653608       -2.7322076959
 H        -8.0546257647        2.9869296954       -3.4567083603
 H        -6.4032993085        2.4832499166       -3.3867459039
 H        -9.8627080604        1.5490747826       -4.5637778234
 H       -10.3208859981        1.3871335255       -6.1594981808
 H       -12.4570724617        2.1229583664       -5.5118319757
 H       -11.7516324385        3.6382580540       -5.6415229967
 H       -12.9342060363        1.7294944281       -1.4349447284
 H       -14.7359215838        1.8045916629       -1.5023926943
 H       -14.8507187042        2.9404815319        0.8570465494
 H       -13.1063088390        3.2394870386        0.7951204347
 H       -11.8695325376       -0.6506550294        2.5137781961
 H       -12.1163709427       -0.6611914448        4.1126646536
 H        -9.7748053024       -0.9330868902        3.8976840165
 H       -10.1769468131        0.5514678541        4.6968824906
 H        -6.2028522437        0.2699143351        5.8214687181
 H        -6.0387100964        2.0553726051        5.9292781469
 H        -5.3567025905        1.1780076828        4.5770214681
 H        -7.1375965282       -1.4653385815        2.4015436138
 H        -8.0508169635       -1.4754817662        3.9794588970
 H        -6.3742203501       -1.0544980013        4.0006038414
 H        -6.7373020597        0.4774553596        1.0953049528
 H        -5.7470143760        1.2439048330        2.4591254073
 H        -7.0813352368        2.1022993793        1.6659090770
 H       -14.0978733950        3.4123323114        2.8713400964
 H       -14.6474287108        2.6021458997        4.2799514761
 H       -15.7136146496        2.6010858349        2.8462659928
 H       -14.2598546331       -0.3776239704        4.2884549872
 H       -14.3615362249       -0.8355045036        2.5639544096
 H       -15.7318887993        0.0738527232        3.4217495068
 H       -13.6182078297        5.9609030809       -3.4997701622
 H       -13.1163240212        5.1629952324       -5.0126748053
 H       -12.0782178323        5.3928975142       -3.5470541768
 H       -14.7152728064        2.0104730125       -4.0670498860
 H       -14.6612240901        3.3629445470       -5.2273150362
 H       -15.5550496532        3.5564277522       -3.8243927223
 H        -6.5086789623        3.5449273295       -8.1354497419
 H        -7.7501667637        4.6219815823       -7.6280171242
 H        -8.1028347676        2.9093279539       -8.4838752720
 H        -7.6162633032        1.1039902461       -5.0927229468
 H        -6.5239120335        1.1469380168       -6.4279568786
 H        -8.2397615442        0.9301352063       -6.8513207830
 H        -6.6926474600        7.4744744648        0.2405080926
 H        -7.5781555005        6.8390861594       -1.2036275289
 H        -5.8399548166        6.8484925810       -1.2620416771
 H        -4.7288317329        5.8297886840        0.5819287844
 H        -5.0328775007        4.0253331565        0.9221421174
 H        -5.8096193779        5.3681769489        1.9253397127
 H       -12.8308464649        5.8726881687        1.9732444756
 H       -13.2859880188        7.3452070654        1.1864786049
 H       -13.4374329615        7.2675223152        2.8429821362
 H       -10.3378327717        9.3057146779        2.1216381642
 H       -11.7946305308        9.6574454972        2.9985228766
 H       -11.8473465402        9.3988630337        1.3038605913
 Na       -9.7451440282        3.5316877281        3.3386505023
