117

 C       -10.8106773772        7.7193226061        4.8838047030
 C       -10.8235364575        6.8179988882        3.6557238067
 O       -10.5805877038        5.6373227509        3.7799188129
 C       -11.2934886431        7.4225496425        2.2670951958
 C       -10.2971604265        6.9101096257        1.0958418478
 O        -9.4548370047        7.6372967751        0.7167839186
 C       -10.5679754090        5.5312930378        0.5251193915
 C        -9.3956074084        4.9642023115       -0.2852937544
 C        -8.0771823895        4.9481407181        0.5505806859
 O        -8.2146803360        4.8837406872        1.7892021790
 C        -6.7028669072        5.1508788137       -0.0497317434
 C        -6.4111121813        4.0943392834       -1.2207170207
 O        -6.0820890726        2.9748479486       -0.9324717959
 C        -6.7012151323        4.5065887729       -2.7440726140
 C        -7.1713720398        3.3820397342       -3.6352577083
 C        -7.0326747482        3.7478711469       -5.1556264360
 O        -6.2344664633        4.5502420296       -5.5829994251
 C        -7.8731867539        2.9337863716       -6.2179330161
 C        -9.3761056448        3.2714381112       -5.9814699928
 O        -9.8658523774        4.3977880531       -6.1299113611
 C       -10.3012667419        2.1263360853       -5.5133275770
 C       -11.7448278470        2.4859780917       -5.2449486475
 C       -12.1067170715        2.8777825120       -3.7405669504
 O       -11.2945564307        2.4865590507       -2.9151338565
 C       -13.5657116071        3.6049504624       -3.4619630806
 C       -13.8066278092        3.6901394258       -1.9067129340
 O       -13.9164796699        4.7242649050       -1.2907317501
 C       -13.8953431491        2.3240632001       -1.1624442529
 C       -13.9495906961        2.4646548771        0.3799893270
 C       -13.7458466007        1.1382141714        1.2211429354
 O       -13.4858205462        0.0424131834        0.7727016424
 C       -13.7819811807        1.3336744834        2.8217443052
 C       -12.3118611722        1.4228726636        3.1919924411
 O       -11.8658584715        2.5160060141        3.5005042009
 C       -11.4505222752        0.1665690741        3.0504715346
 C       -10.1419760744        0.2329787927        3.8527045937
 C        -9.0879417296        0.8512190782        2.9346576060
 O        -9.4843146061        1.5803907403        2.0622474509
 C        -7.5902544358        0.7387776202        3.3022638646
 C        -7.2686164238        1.7038166531        4.5751006313
 O        -7.8411592065        2.7334340277        4.7696537239
 C        -6.1000886082        1.3209071027        5.4044989725
 C        -7.1536760412       -0.8062955656        3.5406850393
 C        -6.7551890397        1.2585297669        2.0358515841
 C       -14.6602300133        2.5257083958        3.3389301565
 C       -14.4418051018       -0.0042374363        3.3106076556
 C       -13.3611150610        5.0152158390       -4.0317336529
 C       -14.7069825171        2.8195526008       -4.1784777165
 C        -7.5116268878        3.4382551787       -7.6411484688
 C        -7.5182598571        1.4209812629       -6.1696177271
 C        -6.5933562025        6.6086760030       -0.6030511992
 C        -5.6517670557        4.9133602330        1.0961447926
 C       -12.7445611818        6.9094466811        2.0378188050
 C       -11.3110148690        8.9441084742        2.2502222203
 H        -9.8063151468        8.2847269919        4.8660761481
 H       -10.9811957672        7.2503833044        5.8214995171
 H       -11.5781599543        8.4937531142        4.8069966277
 H       -11.5231101606        5.5980781366       -0.0111614869
 H       -10.8213530833        4.8296658672        1.2817663316
 H        -9.2208177449        5.5309504288       -1.1697508405
 H        -9.6443124983        3.9538084550       -0.5915548493
 H        -5.8143862829        4.8554628823       -3.2761376778
 H        -7.4821480945        5.2616290400       -2.6960257786
 H        -8.2466339618        3.1059733539       -3.4477223433
 H        -6.5933613947        2.5223043165       -3.4534870531
 H        -9.9224168939        1.5064206017       -4.6622651910
 H       -10.3137670247        1.3778458387       -6.3863170246
 H       -12.4008675771        1.5951285443       -5.3296145236
 H       -12.1638613668        3.2000848093       -6.0009384159
 H       -13.0029050379        1.8452691412       -1.5429641314
 H       -14.7547884045        1.8198880943       -1.5254324166
 H       -14.8963076788        2.8585301575        0.7565569862
 H       -13.1423878388        3.0807773398        0.6536281921
 H       -11.2300598071        0.0318496229        1.9916279537
 H       -11.9353306355       -0.7801182328        3.2287024407
 H        -9.8563901668       -0.7261072410        4.2554040802
 H       -10.2894284674        0.9081872824        4.7366481975
 H        -6.3587075825        0.5762707410        6.0973099689
 H        -5.8947289802        2.1845610200        5.9944968853
 H        -5.1889083277        0.9927668415        4.8602553965
 H        -7.6298539994       -1.5482541498        2.8774587433
 H        -7.3888902797       -1.0696796535        4.5671510710
 H        -6.0403817805       -0.9216405264        3.4975215529
 H        -7.2413688827        0.8445896388        1.1655773875
 H        -5.6987951107        0.9436238113        2.1958704549
 H        -6.9042826355        2.3421649936        1.9958888387
 H       -14.0312590776        3.4710453764        3.3126681887
 H       -14.8471669750        2.4404664754        4.4087871818
 H       -15.5788263183        2.6736175280        2.8036641257
 H       -14.4002996910       -0.0022687035        4.3314586311
 H       -13.9347252185       -0.8898874177        2.9736636883
 H       -15.5119832854        0.0013501145        3.0075239318
 H       -14.0768448093        5.6991169984       -3.6762122400
 H       -13.3720939059        5.0300684073       -5.0759771567
 H       -12.4837513651        5.5895418459       -3.6497640641
 H       -15.1073799753        1.9598906962       -3.6016586251
 H       -14.3945427045        2.4773873667       -5.1346684053
 H       -15.5430144147        3.4805386520       -4.4291208040
 H        -6.4227588930        3.6193086593       -7.6728542979
 H        -7.9175799826        4.4140781339       -7.8711548443
 H        -7.6051804137        2.6879122874       -8.3065393585
 H        -7.4849470562        1.0385121555       -5.1971373191
 H        -6.4299472820        1.3217784523       -6.4707952266
 H        -8.1254314889        0.9134162412       -6.8729127589
 H        -6.6341694460        7.1954661984        0.3024232180
 H        -7.4459940939        6.8238588600       -1.2724990474
 H        -5.7257496497        6.8266742674       -1.1463949983
 H        -4.6746923750        5.3045874716        0.8933480986
 H        -5.5926530863        3.8980677907        1.2899616306
 H        -6.0907378733        5.3171023185        1.9761427078
 H       -12.8617748517        5.8688867319        2.2943455844
 H       -12.9598375294        6.9326168854        0.9808746124
 H       -13.6006521631        7.4442932131        2.4483257855
 H       -10.3506746818        9.3716790319        2.5123876317
 H       -12.0095015341        9.3526287929        2.9743261572
 H       -11.6684178071        9.2840371912        1.2554075040
 Na       -9.6335737496        3.7403310797        3.3156619060
