117

 C       -11.0440695482        7.7342455726        4.9009223118
 C       -10.9501220089        6.7748353010        3.7013466096
 O       -10.7301997720        5.5862638308        3.8379001848
 C       -11.2909340050        7.3464237078        2.2957462939
 C       -10.3399989998        6.8424857712        1.0547360213
 O        -9.4432666318        7.5434292597        0.5852155010
 C       -10.5913055404        5.5400968450        0.3623704987
 C        -9.4001914066        5.0510566905       -0.3998516632
 C        -8.1582912354        4.9155367204        0.5477047796
 O        -8.2328929979        4.8186818004        1.7361287325
 C        -6.7041695772        5.0741782143       -0.1439882516
 C        -6.5211423085        4.0562942313       -1.3558610457
 O        -6.1994401102        2.9313744176       -1.0318449303
 C        -6.7136764367        4.4741341475       -2.7674557778
 C        -7.2880766266        3.3311242231       -3.6213365188
 C        -7.0684327068        3.7933312459       -5.0941465798
 O        -6.1672459931        4.5784992329       -5.3843299481
 C        -7.9283889020        2.9391182945       -6.0930588719
 C        -9.5262155840        3.1509818535       -5.9452391824
 O        -9.9680975814        4.2388931153       -6.2594161869
 C       -10.3999458457        1.9831746610       -5.4678659554
 C       -11.8750398834        2.3989159110       -5.3174151147
 C       -12.1764868264        2.7836625365       -3.8798189672
 O       -11.4463350665        2.4999592178       -2.9614101309
 C       -13.5940662698        3.4742237409       -3.5489326064
 C       -13.5874918311        3.4850260814       -1.9292460152
 O       -13.4764424066        4.5281565730       -1.3483998385
 C       -13.7528689190        2.1788968150       -1.0545817069
 C       -14.0133690062        2.5468343483        0.3718039327
 C       -13.8717196754        1.2608419265        1.1752033308
 O       -13.5953008927        0.1548057192        0.6835968955
 C       -13.7917385488        1.3726942310        2.8051489332
 C       -12.2605695467        1.4878310245        3.1168708325
 O       -11.8314378587        2.6276590808        3.2641814097
 C       -11.3846423858        0.2514069485        3.1273525178
 C       -10.0108133594        0.2918466456        3.8658179856
 C        -8.9883686001        1.0502253951        3.0471660743
 O        -9.2501075386        1.7207299079        2.0282202438
 C        -7.5119318314        0.9220077160        3.5023257079
 C        -7.1023886366        1.8862900071        4.5903373572
 O        -7.6745045025        2.9801379462        4.7482688280
 C        -6.0396578530        1.5136213505        5.6041473204
 C        -7.1393939507       -0.5417470487        3.8444069633
 C        -6.6851617629        1.4181734532        2.2014275858
 C       -14.5351413820        2.5402748769        3.3401070757
 C       -14.3937779991        0.1282595924        3.4687679632
 C       -13.7242967469        4.9518312641       -4.0062796692
 C       -14.7250602562        2.6763972531       -4.1497343037
 C        -7.5981310243        3.4818851541       -7.5081518107
 C        -7.5944148589        1.4488237418       -5.9628169401
 C        -6.5065716495        6.5720882617       -0.5890864478
 C        -5.5753454219        4.8073331524        0.8626741056
 C       -12.7428041212        6.7945954896        1.9411949282
 C       -11.1898908872        8.9047983547        2.2308818372
 H       -10.2362006823        8.3645012162        4.9936500286
 H       -11.0094904862        7.0368568529        5.8277894788
 H       -11.9893744082        8.3551236621        4.9531696827
 H       -11.4940388562        5.6657942009       -0.2491229741
 H       -10.9621150611        4.7568454944        1.0895447951
 H        -9.0822600948        5.8170501328       -1.1648119929
 H        -9.5793338109        4.1133786929       -0.9675321331
 H        -5.6564160094        4.6336399157       -3.0660992094
 H        -7.2936678363        5.4009013722       -2.8702705035
 H        -8.3112691273        3.1150546590       -3.3570394787
 H        -6.6337728217        2.3818874955       -3.4586703915
 H       -10.0604523878        1.8180502193       -4.4452239409
 H       -10.2927159415        1.0845530924       -5.9948033079
 H       -12.6264347300        1.6198832443       -5.5729236722
 H       -12.1657270419        3.2588346181       -5.9148157778
 H       -12.8897419426        1.5042523812       -1.2409402180
 H       -14.7256624978        1.7690699837       -1.4573886577
 H       -15.0158656531        2.9697960336        0.5536020050
 H       -13.1426200509        3.2234996789        0.6781905378
 H       -11.1996434016       -0.0506004962        2.0607270066
 H       -11.9115629628       -0.6693915425        3.4719123917
 H        -9.6647492479       -0.7474349540        4.0297477461
 H       -10.0847162108        0.7559282979        4.8242418216
 H        -6.5139015769        0.8260179905        6.4070063068
 H        -5.5767318808        2.3270812211        6.1792287170
 H        -5.2665569661        0.9663238894        5.0971952637
 H        -7.7322711115       -1.1982051767        3.2419413316
 H        -7.4556892681       -0.8442405887        4.8621504291
 H        -6.1427264386       -0.8497839359        3.6505228143
 H        -6.8943138267        0.8160446081        1.3083957015
 H        -5.6439214741        1.4797845207        2.4112148601
 H        -7.1846592476        2.3767639552        2.1301372773
 H       -14.2376227575        3.4654173848        2.9221237196
 H       -14.4748055550        2.7119316337        4.3965599860
 H       -15.5613568303        2.3677697626        3.0253832912
 H       -14.3127434925        0.1098418867        4.6223142950
 H       -13.9499728757       -0.8036352909        3.1046544399
 H       -15.3930214941        0.1343898945        3.1275046527
 H       -14.6724750005        5.4673079655       -3.7110598741
 H       -13.5458780602        4.9896807798       -5.1015027339
 H       -13.0345975504        5.6075945932       -3.5960316730
 H       -14.7595023511        1.6725992492       -3.7869547877
 H       -14.6451584299        2.6767602470       -5.2587362374
 H       -15.6938963298        3.1086361221       -3.8563560569
 H        -6.5734803615        3.3145488142       -7.7755711627
 H        -7.8423847802        4.5373049251       -7.5647336629
 H        -8.1733157630        2.7936903643       -8.2627080385
 H        -7.9850892082        1.0465382279       -4.9874129751
 H        -6.5731245163        1.3441831502       -5.8911718027
 H        -7.9564813342        0.9375412285       -6.8648903175
 H        -6.5648847645        7.2391472793        0.2647754142
 H        -7.1344093929        6.8270435630       -1.4006196469
 H        -5.4732664814        6.6999220402       -1.0338329515
 H        -4.7005831307        4.5650739960        0.2638467123
 H        -5.8493229606        3.8880425852        1.4232245166
 H        -5.4583389091        5.5729008007        1.6377638587
 H       -12.8856788900        5.6960516613        1.9721740299
 H       -13.3234276485        7.1495157549        1.0718154826
 H       -13.3753088025        7.1523998425        2.8150746092
 H       -10.3661900353        9.3247408895        2.8327839269
 H       -12.1121765084        9.2980070042        2.7358251137
 H       -11.2536392236        9.2665973463        1.2208934590
 Na       -9.5188711527        3.6245642106        3.2239089546
