117

 C       -11.6273845498        7.7133191405        4.7436830512
 C       -11.1849243397        6.8142360120        3.6335097447
 O       -10.6463506100        5.7034486666        3.7344951122
 C       -11.4832178031        7.3594049562        2.0886649385
 C       -10.2519055510        6.7958007065        1.2593651767
 O        -9.2516801301        7.4492856407        1.2202376831
 C       -10.5156277704        5.4496833546        0.6326058884
 C        -9.2764407839        4.9610755780       -0.1341059115
 C        -7.9235769203        4.9450314325        0.5635428858
 O        -7.8510805985        4.5022179196        1.7367860829
 C        -6.6571645513        5.1867319365       -0.2832200054
 C        -6.7096191328        4.0329381420       -1.3611909125
 O        -6.5962764472        2.8802737765       -1.0034306647
 C        -6.9594681319        4.4900007828       -2.8260762834
 C        -7.5683022859        3.3546614235       -3.7294542696
 C        -7.3815238849        3.6691029704       -5.1918427162
 O        -6.6773424921        4.5493430323       -5.5741552120
 C        -8.1607797263        2.6934864523       -6.2516049736
 C        -9.6322793399        3.0050238558       -6.1780702291
 O        -9.9802321903        4.1635368586       -6.1033488663
 C       -10.5616488323        1.8329850784       -5.7940514966
 C       -12.0173284084        2.2741143180       -5.5120723847
 C       -12.1564876285        2.6181599515       -3.9991068102
 O       -11.2527154904        2.3957031577       -3.1792730096
 C       -13.5136589783        3.2174072309       -3.5052789032
 C       -13.5124081448        3.3754712077       -1.9195131256
 O       -13.2642361273        4.4532600664       -1.3932262536
 C       -13.7526285315        2.1248435013       -0.9802732254
 C       -13.8359167129        2.5951464093        0.4817782437
 C       -13.7422189745        1.2670169719        1.4085351675
 O       -13.8360904186        0.1887037813        0.9891716399
 C       -13.5637073304        1.5420294807        3.0001104414
 C       -12.0360045707        1.6346238710        3.0968441849
 O       -11.4674801305        2.7169046113        2.9893438818
 C       -11.2516874487        0.3982170222        3.1859043119
 C        -9.9517810901        0.6407456466        4.0189740970
 C        -8.6974990803        1.1047867774        3.0954977842
 O        -8.8191522646        1.2444883051        1.9046142041
 C        -7.2322714478        1.1417122207        3.7187495039
 C        -7.2488325961        2.3422389285        4.7103491737
 O        -8.1553637261        3.1436314794        4.6623911540
 C        -6.2351294179        2.3667014786        5.8518125665
 C        -6.8561996913       -0.1581819846        4.5283026581
 C        -6.2754371370        1.3497997081        2.5062790928
 C       -14.2866916024        2.8856584559        3.3815984434
 C       -14.1543169919        0.3841794764        3.7857246283
 C       -13.7975867797        4.6453938619       -4.0774629625
 C       -14.6484026137        2.2565275136       -4.0154514071
 C        -7.6419302040        3.1121235458       -7.6341465234
 C        -7.7506605316        1.1833290292       -6.0770862691
 C        -6.6149568200        6.6340191216       -0.7940169089
 C        -5.3534686868        4.8797949257        0.5640524895
 C       -12.8422898211        6.7999364567        1.6934763019
 C       -11.5800800179        8.8849146799        1.9302718644
 H       -10.8774718152        8.5853022066        4.8509311791
 H       -11.4320492060        7.2689828402        5.6612179295
 H       -12.5961577485        8.1372178824        4.4781415909
 H       -11.4188870729        5.3652214680       -0.0244699247
 H       -10.8105284149        4.7597561151        1.4429897885
 H        -9.1469217148        5.4660217805       -1.1139202699
 H        -9.4573092919        3.8612064727       -0.3743276035
 H        -5.9977088171        4.8393484202       -3.2772015313
 H        -7.5242967624        5.4330222312       -2.8489952422
 H        -8.6636547579        3.2272478254       -3.5523184554
 H        -7.0433829900        2.3896428776       -3.5261227060
 H       -10.1528229051        1.4226339715       -4.8955091794
 H       -10.5782889959        1.1373168172       -6.6050030889
 H       -12.7546840949        1.4733539307       -5.7228610242
 H       -12.2895707388        3.1195477062       -6.1573353563
 H       -13.0153970584        1.2622277598       -1.0338171841
 H       -14.7794454659        1.8441836881       -1.3110639563
 H       -14.8401542398        2.9817394064        0.5968672954
 H       -12.9743750454        3.2680871481        0.8137069031
 H       -10.8831266209        0.1492311732        2.1638112399
 H       -11.7445694056       -0.4776742240        3.6246861347
 H        -9.6360177165       -0.3659617036        4.2651334029
 H       -10.2399720578        1.1924907848        4.9022869657
 H        -6.0768220499        1.5155450044        6.4978872359
 H        -6.3929341066        3.2694814640        6.4671156140
 H        -5.2542150864        2.4715867109        5.2810941278
 H        -7.3179771958       -1.0529896416        4.1600206629
 H        -7.1167199826       -0.1456088427        5.5561621937
 H        -5.8046810350       -0.3766657600        4.4768277125
 H        -6.3831528926        0.5409805814        1.8128458407
 H        -5.2843162786        1.2605015654        2.9998041683
 H        -6.3953123369        2.3687040229        2.1529815653
 H       -13.6410501030        3.6964308910        2.9506311936
 H       -14.4087694211        3.0123263541        4.4244281951
 H       -15.2329898849        3.0811352390        2.9825818712
 H       -14.2106042840        0.6244712995        4.8053908364
 H       -13.5845504417       -0.5510757832        3.6666037587
 H       -15.2077334126        0.1408216190        3.4196185365
 H       -14.7369225082        4.8469738877       -3.6102640976
 H       -14.0271160952        4.7008708078       -5.1115951664
 H       -13.0198412190        5.4743024396       -3.9465099761
 H       -14.4573227742        1.2133534491       -3.7165145814
 H       -14.6979618022        2.3299483978       -5.0625592460
 H       -15.6135267365        2.5801188908       -3.5638270428
 H        -6.5628539673        3.3000184657       -7.3870135340
 H        -8.2180792619        3.9945895399       -8.0126212572
 H        -7.8187950021        2.4029553530       -8.3699454677
 H        -8.0401740942        0.8106278318       -5.1418329581
 H        -6.6383807364        1.2440939362       -6.2858006539
 H        -8.2063738647        0.5333711228       -6.7621245294
 H        -6.4942722573        7.3103179830        0.0599110883
 H        -7.5719025441        7.0064762686       -1.2160109621
 H        -5.7809541435        6.7553924360       -1.4445448609
 H        -4.5354606813        5.5667714146        0.2947804226
 H        -5.0640618404        3.8667868955        0.5286707915
 H        -5.5767778125        5.2094173672        1.5849137936
 H       -12.9239645310        5.7499243024        2.0854465344
 H       -12.9992739317        6.6495698871        0.6136899128
 H       -13.7815474271        7.2660064859        2.0971567896
 H       -10.5971631254        9.3200104547        2.1381956150
 H       -12.3811938180        9.3247385626        2.5689057067
 H       -11.7299513148        9.0644108929        0.8495518456
 Na       -9.5790977585        3.7144412075        2.8702927069
