117

 C       -12.0474604596        7.6896667648        4.5740906428
 C       -11.3062960124        6.8413276735        3.5568417219
 O       -10.6936695538        5.8955680248        3.9916889397
 C       -11.4910620320        7.1641332157        2.0989040312
 C       -10.3783184896        6.4964362922        1.2359228566
 O        -9.2730988525        7.0248706515        1.2292025449
 C       -10.4463373718        5.1414181055        0.4581267743
 C        -9.1963083593        4.7202188266       -0.3287758592
 C        -7.8992250515        5.0221686086        0.4736556911
 O        -7.7943604605        4.6203082551        1.6044401544
 C        -6.6841139444        5.3123961414       -0.4675375726
 C        -6.7210868108        4.1808883228       -1.6283171482
 O        -6.4233602321        3.0584245396       -1.2666952462
 C        -7.1020283137        4.4495809457       -3.1312640360
 C        -7.4796030599        3.2481342401       -4.0422489941
 C        -7.3948700028        3.5511858252       -5.5322414059
 O        -6.8311075936        4.4967508963       -6.0749589276
 C        -8.2248864580        2.5168757034       -6.4245928434
 C        -9.7993214857        2.8975956726       -6.1148451434
 O       -10.1705947975        4.0516270830       -5.9922541589
 C       -10.7439521183        1.6664030886       -6.0371794943
 C       -12.1741455059        1.9302273593       -5.5177264913
 C       -12.1905691708        2.3813986089       -4.0479015308
 O       -11.3050152331        2.1614321147       -3.2826250545
 C       -13.5015590827        3.0599030560       -3.5069901505
 C       -13.4383037191        3.2145739955       -1.9236307421
 O       -13.4437040801        4.3315348005       -1.4723999347
 C       -13.3016982004        1.9607221730       -1.0202999858
 C       -13.3483124357        2.4250603103        0.4298119035
 C       -13.6946276904        1.3549899090        1.4816164835
 O       -14.1055107507        0.2195444618        1.1851569924
 C       -13.4892377325        1.6747249619        3.0928476750
 C       -11.9004242472        1.7503316233        3.2435549807
 O       -11.3538785668        2.8495723677        3.1385453826
 C       -11.0800469557        0.4646413195        3.3113409313
 C        -9.7793105478        0.6419240898        4.1394057769
 C        -8.5585236403        1.0480626469        3.3543263533
 O        -8.6977152387        1.1606698899        2.1507235960
 C        -7.1614379350        1.3112385781        4.0111291540
 C        -7.4329965450        2.6610853447        5.0521561832
 O        -8.4555912252        3.3437306899        5.0665575725
 C        -6.2924011742        3.1306358632        5.9005273873
 C        -6.7119401610        0.2005966722        4.9700236622
 C        -6.0539919162        1.6057838771        2.9715911006
 C       -14.2119604715        3.0082175026        3.3459820416
 C       -14.1061298906        0.5129726743        3.9723795427
 C       -13.5498032623        4.5361790420       -4.0980067298
 C       -14.6962807725        2.1181875566       -3.8108433072
 C        -7.9646689562        2.7680694050       -7.9063305185
 C        -7.8668649157        1.0483584961       -6.0410485564
 C        -6.7254449825        6.7045251544       -1.1645967829
 C        -5.3487401082        5.1067370135        0.2690361895
 C       -12.8559017704        6.6367144678        1.6950649965
 C       -11.3785267066        8.7071580326        1.8030122869
 H       -11.6982194400        8.6870272669        4.5307070822
 H       -11.7431440408        7.3180923645        5.6222293667
 H       -13.1114817834        7.7756142920        4.3522790430
 H       -11.3103809321        5.2455487998       -0.2583964771
 H       -10.6730205394        4.3156494584        1.1428740302
 H        -9.0687950166        5.2447762366       -1.3036186319
 H        -9.1546744871        3.6131470358       -0.5329164556
 H        -6.3041183015        4.9899955966       -3.6770503271
 H        -7.8786700406        5.2467422373       -3.0702337175
 H        -8.4988205174        2.7369860268       -3.8492873813
 H        -6.7736767544        2.4668875466       -3.8708056727
 H       -10.2767863655        1.1200405105       -5.2582887850
 H       -10.7693560677        1.1511777595       -6.9948616467
 H       -12.7357589975        0.9862842349       -5.6094021398
 H       -12.6886330221        2.6938510055       -6.1258193475
 H       -12.2946824364        1.5659891961       -1.3194208793
 H       -14.0876221769        1.1883982459       -1.2512244160
 H       -14.2912656828        3.1133319560        0.4675089277
 H       -12.5140680679        3.0066423721        0.8240752103
 H       -10.6652568934        0.2600504741        2.3063032595
 H       -11.6018096333       -0.3920652652        3.7461809412
 H        -9.5607340594       -0.2655510024        4.6685265804
 H        -9.9551760646        1.4092396743        4.9392466603
 H        -5.8385596883        2.3190581968        6.4963957802
 H        -6.6979465116        3.9574744641        6.5302684468
 H        -5.4497245180        3.5562564760        5.3341911302
 H        -6.3410164219       -0.6820020527        4.5221786731
 H        -7.4673440153       -0.1089785660        5.6438851246
 H        -5.9789527213        0.5579241728        5.6411981307
 H        -6.2057303709        0.8160403308        2.2195607211
 H        -5.1203878571        1.6806288475        3.5058833323
 H        -6.2346857616        2.5301794456        2.4402549123
 H       -13.7590195891        3.8800222734        3.0188920456
 H       -14.3885677332        3.1158609231        4.4292977942
 H       -15.2497324635        2.9811573032        2.9292762002
 H       -13.6003310215        0.4414246465        4.9783396020
 H       -13.9919937253       -0.4265068186        3.4598088873
 H       -15.1140516252        0.6520251035        4.2563690102
 H       -14.0347783950        5.1767651657       -3.3478216851
 H       -14.1432170289        4.7303031769       -5.0333603469
 H       -12.5528137641        4.8317643367       -4.1309329293
 H       -14.3145132850        1.1130264546       -3.9095127690
 H       -15.1489317029        2.4075021664       -4.7812435567
 H       -15.4487984433        2.2244731533       -3.0849737297
 H        -7.0101443545        2.3546307133       -8.1780519400
 H        -7.9541619039        3.8226045671       -7.9934159223
 H        -8.8112811755        2.2930305898       -8.5444911063
 H        -8.1064314144        0.8904352346       -4.9790631550
 H        -6.8630722950        0.7509574711       -6.2138163168
 H        -8.5745736017        0.4822301585       -6.6778860655
 H        -6.5177964659        7.5095741128       -0.4910490811
 H        -7.7384900445        6.9441291962       -1.5036637481
 H        -6.0296697516        6.8093859637       -1.9902069614
 H        -4.5116789784        5.0077362962       -0.3591756256
 H        -5.3933617676        4.1755376175        0.8683537309
 H        -5.2153650556        5.9600646841        0.8787603368
 H       -13.1850892117        5.6035773481        2.0003655018
 H       -12.9517484647        6.7580120586        0.5711563195
 H       -13.6094903671        7.3027318245        2.0672137763
 H       -10.3255561958        8.9702280774        2.0675226718
 H       -12.1619216070        9.2429504136        2.2938513420
 H       -11.5140529734        8.8515163134        0.6950572164
 Na       -9.4932118442        4.3192960798        3.2373682307
