117

 C       -11.4322722735        7.6275528800        4.8365030585
 C       -11.1083048198        6.8136352457        3.5719013461
 O       -10.6881530174        5.7260127271        3.7095328950
 C       -11.4639059958        7.3925341014        2.1212644389
 C       -10.3887362353        6.7442743072        1.2390320496
 O        -9.3462723216        7.3546910951        1.0298404502
 C       -10.5332073040        5.3881153731        0.5790379312
 C        -9.2888811178        4.9970166384       -0.2340020998
 C        -7.9392431075        4.9362434418        0.5995040095
 O        -7.8584187272        4.4069999770        1.7009145021
 C        -6.6193033751        5.2880780247       -0.1649143208
 C        -6.7227039763        4.0505066835       -1.3340268058
 O        -6.6184519204        2.8737726946       -1.0286721978
 C        -6.9757854964        4.4338282393       -2.7373030036
 C        -7.5899524702        3.3553189197       -3.6499356951
 C        -7.2610392726        3.5948994630       -5.2006959947
 O        -6.6340576198        4.5830778829       -5.5220683674
 C        -7.9723588143        2.7716364587       -6.2587036201
 C        -9.5554192516        3.1270196879       -5.9728372013
 O       -10.0407066759        4.2214956380       -6.1960824568
 C       -10.5095263463        1.8666294700       -5.6838608631
 C       -11.9649612336        2.2911978044       -5.3741823914
 C       -12.1625339025        2.5926180198       -3.8993131775
 O       -11.2681839203        2.4433751114       -3.1177592803
 C       -13.6469537447        3.2746831564       -3.4523544397
 C       -13.5390846236        3.4486315575       -1.9016678828
 O       -13.1034346881        4.4310739577       -1.3755887001
 C       -13.8034334889        2.2139976856       -1.0295645130
 C       -13.9721013990        2.4952436920        0.4238633486
 C       -13.8502670141        1.2734817933        1.3432234409
 O       -13.8192657163        0.1543359691        0.8406065114
 C       -13.6094082754        1.4710068140        2.9220508790
 C       -12.0479904237        1.6256427216        3.1014277933
 O       -11.6078291109        2.7548580008        2.9984190848
 C       -11.2027437235        0.3682226337        3.2465519853
 C        -9.7807735188        0.5264314211        3.9495456879
 C        -8.6798595270        0.9495387525        3.0073348310
 O        -8.9227852237        1.4952910877        1.9369269823
 C        -7.2381434086        1.0084217622        3.6770876745
 C        -7.2127568744        2.2737727650        4.6761114559
 O        -8.0294172023        3.1636129716        4.6021266235
 C        -6.2334018875        2.2582900087        5.8020541423
 C        -6.9378125630       -0.2383239916        4.3992778559
 C        -6.3209847290        1.3301758091        2.4499489766
 C       -14.2778245317        2.8452229589        3.3250882454
 C       -14.3235597045        0.3742686705        3.6864827079
 C       -13.8843028892        4.6612744588       -4.1530225327
 C       -14.7365284695        2.3229135515       -4.0438504729
 C        -7.6077851661        3.1808975419       -7.7022553954
 C        -7.7337998828        1.1913463604       -6.0836344263
 C        -6.4489192575        6.6414376923       -0.7558184442
 C        -5.3815693018        4.9483621072        0.7840933422
 C       -12.8492936542        6.8249337394        1.7186883514
 C       -11.4583092897        8.9265596692        2.0427069892
 H       -10.8566513305        8.4715558749        5.0696352869
 H       -11.1521473021        6.9576977371        5.6843286236
 H       -12.5217300680        7.9773594044        4.7052831136
 H       -11.3529576741        5.3066699392       -0.1303636088
 H       -10.8507679871        4.6051667987        1.3062191726
 H        -9.1198912523        5.7549650180       -1.0215949859
 H        -9.5510832856        4.0669512043       -0.7549794067
 H        -5.9726912663        4.6768030000       -3.1560226431
 H        -7.4624269438        5.4036894326       -2.7672328197
 H        -8.6601587118        3.4221791586       -3.6132659103
 H        -7.2306930751        2.3221316643       -3.2334637878
 H       -10.0985400853        1.2670939038       -4.8445558801
 H       -10.5654360708        1.2988384433       -6.6005813536
 H       -12.7188646940        1.4881186294       -5.6670196671
 H       -12.2533981569        3.1860907237       -6.0021804169
 H       -12.8518635891        1.6581719599       -1.1174889768
 H       -14.6397102984        1.6557981219       -1.4723978167
 H       -14.8970629239        2.9823481683        0.5835131594
 H       -13.0483188147        3.0249463959        0.7720241578
 H       -10.9968547669       -0.0082237456        2.1943523372
 H       -11.7414527607       -0.4357249563        3.8035783930
 H        -9.5394256203       -0.3484465344        4.5789417795
 H        -9.9019262920        1.3996275472        4.5484698088
 H        -6.4067056837        1.3800249638        6.5164690586
 H        -6.4232387978        3.1360233667        6.3597181018
 H        -5.2032245211        2.1662643842        5.5139672942
 H        -7.1879946688       -1.0389232039        3.7574850575
 H        -7.4078372105       -0.5113308636        5.3561423589
 H        -5.8938256074       -0.3662615358        4.4627932161
 H        -6.2885228851        0.4823686317        1.7626240452
 H        -5.3146137442        1.4852020127        2.8140527724
 H        -6.7527603791        2.2876456022        2.1005573994
 H       -13.6207352078        3.7209904043        3.1281586875
 H       -14.4837519391        2.8126736803        4.3923308767
 H       -15.2148387282        3.1225855637        2.8674539683
 H       -14.1739812310        0.5823823908        4.7649301810
 H       -13.9550922458       -0.6007063722        3.4889062378
 H       -15.3512517442        0.3679717677        3.4636905127
 H       -14.7989971538        5.0989718417       -3.7674312414
 H       -13.9745634070        4.5776367360       -5.2037450733
 H       -13.0547935062        5.3421592681       -4.0621139944
 H       -14.3684688613        1.3581104931       -4.3172227022
 H       -15.1937392542        2.7914773278       -4.9034445238
 H       -15.4936572197        2.1421291538       -3.2573885917
 H        -6.5770174868        3.2737910966       -7.8514851515
 H        -8.2078383314        4.0388926306       -7.9572575758
 H        -8.1088680287        2.4414926370       -8.3405338177
 H        -8.0414254016        0.8446261010       -5.0756446288
 H        -6.7282596820        1.0743430201       -6.2970075498
 H        -8.3059611915        0.5914650129       -6.7721613373
 H        -6.2449904570        7.2985244634        0.0867574642
 H        -7.3210208688        7.0440090902       -1.1873584874
 H        -5.5801150806        6.7028937603       -1.4463208735
 H        -4.5207513442        5.4849647947        0.4343993404
 H        -5.1944561856        3.9206255218        0.8633098383
 H        -5.5651975916        5.3683673807        1.7572342157
 H       -12.8105361850        5.7580077984        1.8557744233
 H       -13.0072752922        6.8783092745        0.6569388138
 H       -13.8230513875        7.1275916913        2.2245318000
 H       -10.4524018339        9.3421663876        2.1042801171
 H       -12.1979876705        9.4275254110        2.7536622460
 H       -11.7494493773        9.0693122128        1.0218050956
 Na       -9.5602080565        3.7631332612        3.0309823469
