117

 C       -12.0149049225        7.7205493800        4.7102137979
 C       -11.3068333056        6.8457759650        3.5591907210
 O       -10.6802092226        5.8364216082        3.9725562747
 C       -11.4872189918        7.1765297988        2.0423004487
 C       -10.2064284167        6.5983475627        1.2465423898
 O        -9.1333349504        7.1578612953        1.2556752775
 C       -10.5156597981        5.3450460898        0.4364859677
 C        -9.3017787078        4.6964172479       -0.2126196742
 C        -7.8428028489        4.9422451253        0.4630837833
 O        -7.6959531087        4.6985214381        1.6828234782
 C        -6.6261055245        5.2082972398       -0.4525078566
 C        -6.7523326453        4.0965632054       -1.5449580996
 O        -6.4696768655        2.9797492187       -1.2643474568
 C        -7.1035648162        4.5448877328       -3.0147052130
 C        -7.4434600170        3.3272466738       -3.8965039357
 C        -7.3965874591        3.5376279083       -5.4724382149
 O        -6.8387725415        4.4967078727       -5.9382638143
 C        -8.2499886987        2.5477877490       -6.4151371472
 C        -9.7497798495        2.9176328568       -6.1221368783
 O       -10.0527678200        4.0717256229       -6.0578255470
 C       -10.7476831322        1.7231157404       -6.0820405893
 C       -12.1190329779        2.0206117500       -5.5038054153
 C       -12.1663366173        2.3854850733       -4.0372956961
 O       -11.2137171714        2.2488539210       -3.2874526257
 C       -13.4703139593        3.0843841879       -3.5123101703
 C       -13.4119973311        3.1903815531       -2.0046861970
 O       -13.5109552931        4.2829884019       -1.4573750654
 C       -13.3893228761        2.0113616936       -0.9478515413
 C       -13.4307808697        2.4642781659        0.4946246448
 C       -13.7416545930        1.3551425482        1.5711544879
 O       -13.9814346049        0.2248510854        1.2178358021
 C       -13.5256489755        1.6583226281        3.0930254431
 C       -11.9816564655        1.7129309609        3.1866604216
 O       -11.4908906202        2.8523508042        3.0672339184
 C       -11.1827927359        0.4603010357        3.3388768246
 C        -9.8276193561        0.5960690996        4.1206386418
 C        -8.5644209596        0.9354446315        3.2170708583
 O        -8.6266406149        1.1007896057        2.0151350442
 C        -7.2487508581        1.3699028734        4.0255788922
 C        -7.3458878236        2.6408323372        4.9171644424
 O        -8.4183409776        3.2516992499        4.9418324420
 C        -6.2350205487        3.0271674072        5.8562048087
 C        -6.7943832640        0.0503483048        4.9378795785
 C        -6.1680421413        1.6079941941        2.9484392369
 C       -14.2044762231        2.9620515684        3.4454660486
 C       -14.0924481436        0.4786584383        3.9132246868
 C       -13.5948325149        4.4997664132       -4.1340384533
 C       -14.7730162063        2.2332759921       -3.8537842669
 C        -7.9005799826        2.8198987916       -7.9316988263
 C        -7.8259108157        1.1219885760       -6.0092613999
 C        -6.7186949472        6.6450926337       -1.1465895473
 C        -5.2922685672        5.1027262654        0.2665679771
 C       -12.9005232884        6.6448521683        1.6290762393
 C       -11.5335363679        8.7172435374        1.8039539789
 H       -11.5932975296        8.8207043277        4.5967051791
 H       -11.8137526300        7.4746725978        5.7581541791
 H       -13.0311659194        7.8767680510        4.4090431560
 H       -11.2895569587        5.6459730248       -0.3016869824
 H       -10.9996432877        4.6196139556        1.1004375867
 H        -9.1613270859        5.1382278211       -1.1999876465
 H        -9.3829362855        3.5966131601       -0.3542626073
 H        -6.2963865411        5.1382950662       -3.4553517237
 H        -7.8875164276        5.2996086223       -2.9870834682
 H        -8.5222614211        3.0177731034       -3.6951155145
 H        -6.8478636475        2.4551854686       -3.5506164168
 H       -10.3371059514        0.9397542451       -5.4558011098
 H       -10.8419837273        1.4646319923       -7.1324967295
 H       -12.7871015661        1.1163653127       -5.6957348124
 H       -12.5921615016        2.9238112045       -6.0110448299
 H       -12.5252190437        1.3309178885       -1.0496386747
 H       -14.3199545172        1.4723373707       -1.1900294917
 H       -14.0020213158        3.3741268991        0.5899608567
 H       -12.4083340721        2.6531222061        0.9105198284
 H       -10.7441664221        0.1381405509        2.3469250113
 H       -11.7549597193       -0.3493352654        3.8347391975
 H        -9.6614880708       -0.3531124484        4.6234098783
 H        -9.8900509769        1.3710997226        4.8970959128
 H        -5.8310180561        2.2816242752        6.4384690906
 H        -6.5944631710        3.9166753228        6.4183310343
 H        -5.3794592512        3.3837797975        5.2434002018
 H        -6.3224029441       -0.6350491839        4.2307356597
 H        -7.5675910274       -0.5237761043        5.3271771641
 H        -6.1705278948        0.1412687552        5.8222708768
 H        -6.2316651086        0.7710256668        2.2507253728
 H        -5.2564592562        1.7703623861        3.5629671174
 H        -6.3452705031        2.5155658846        2.3736510701
 H       -13.8625986861        3.7942755600        2.7905427037
 H       -13.9973841875        3.2474356073        4.4875318502
 H       -15.2977389058        2.9786615944        3.3674430206
 H       -13.5157337561        0.2746773262        4.7298771235
 H       -14.1854144394       -0.4101089218        3.3076489569
 H       -15.0461017284        0.7133505658        4.4012638935
 H       -14.2906778837        5.1008134480       -3.6414331272
 H       -13.9752992857        4.4426787740       -5.1402743689
 H       -12.5822671230        4.9280626828       -4.1264928285
 H       -14.5082060775        1.1764665077       -3.6881581777
 H       -14.9770474770        2.3528191229       -4.8877806860
 H       -15.6450065886        2.5988412544       -3.3161379552
 H        -6.9434532603        2.3754520649       -8.2363930817
 H        -7.9513391058        3.8963000616       -8.0700094755
 H        -8.7074895056        2.4042980755       -8.4479775697
 H        -8.1066143304        0.8775597165       -4.9995754526
 H        -6.6753120981        1.1368123091       -6.1260701119
 H        -8.2434550737        0.4105636196       -6.6889429879
 H        -6.7003860886        7.4719326706       -0.4465543293
 H        -7.7062662334        6.8238273587       -1.6189795813
 H        -5.9362077229        6.7911767700       -1.8184176984
 H        -4.4833846875        4.9354652077       -0.4119291513
 H        -5.3537540936        4.2246042158        0.8648137264
 H        -5.0501434696        5.9808797831        0.8143203421
 H       -13.2134462746        5.6031722051        1.8446867847
 H       -13.1418016053        6.9046785978        0.6040610117
 H       -13.5869776225        7.2295955969        2.1874703483
 H       -10.6093316917        9.1287882191        2.2060709200
 H       -12.4164841995        9.0554338621        2.3033535086
 H       -11.6309681100        8.9710910007        0.7242123034
 Na       -9.4911089124        4.1875147791        3.1837225542
