117

 C       -11.8255806634        7.9592488729        4.1582498357
 C       -11.2639071695        6.9930814444        3.1729759447
 O       -10.5141898482        6.0825828639        3.5413636573
 C       -11.5052931576        7.2405551004        1.6134669502
 C       -10.3926257976        6.6460616152        0.6649928095
 O        -9.4627979423        7.2813828084        0.2779887382
 C       -10.5383726931        5.1281438185        0.3097595522
 C        -9.3696940748        4.7163651749       -0.5620785468
 C        -7.9490375201        5.0019213035        0.0233847072
 O        -7.6923357837        4.7818780118        1.2269431466
 C        -6.8564891284        5.3854745670       -1.0614409213
 C        -6.7754708195        4.1209670990       -2.0410093202
 O        -6.1874301244        3.1323320146       -1.6611204094
 C        -7.4455279365        4.3335595877       -3.4461198550
 C        -7.3469869091        3.0337633898       -4.2811617325
 C        -7.6680902070        3.3212416339       -5.7963865850
 O        -7.1611676054        4.2008476109       -6.4400004313
 C        -8.6748984534        2.2888924919       -6.5003914866
 C        -9.9681554211        2.2388316286       -5.6905925623
 O       -10.2739418167        3.1883201669       -4.9993090758
 C       -10.8747271839        0.9726362444       -5.6011167208
 C       -12.3226211780        1.2657404121       -5.2427877784
 C       -12.3782855181        1.7711837475       -3.8053545051
 O       -11.6229435449        1.2765764138       -3.0297080436
 C       -13.5711004604        2.7380612271       -3.3514594199
 C       -13.3728802272        2.9248536572       -1.7789904823
 O       -13.2428760490        4.0660688846       -1.3675420461
 C       -13.3661760968        1.7247340590       -0.7742418145
 C       -13.4905732467        2.1667079130        0.6231450020
 C       -13.1142351759        1.1149794761        1.6818436189
 O       -12.6001481615        0.0533914904        1.4607270334
 C       -13.2333949886        1.4312459197        3.2807630507
 C       -11.8014245261        1.7787612686        3.5900401123
 O       -11.3232923062        2.7557565287        3.0179916372
 C       -10.8866599961        0.8205299418        4.3782896552
 C        -9.6112067170        1.4415184020        4.9853026922
 C        -8.5036171369        1.6908308963        3.9880494158
 O        -8.6414613694        1.7537811006        2.8018938100
 C        -7.0559949443        2.0794767068        4.7371085057
 C        -7.4190169288        3.3888602704        5.3428024672
 O        -7.9930153085        4.2620111354        4.7172111418
 C        -7.0566879476        3.7221724554        6.8035059291
 C        -6.5717684903        0.9812200098        5.7043177695
 C        -5.9058741206        2.4265096472        3.6955718176
 C       -14.0818562612        2.6389632152        3.5414903563
 C       -13.7602609387        0.1767390073        3.9942939034
 C       -13.2903369480        4.0921090457       -4.1029614949
 C       -14.9747728181        2.2301908815       -3.7821345038
 C        -8.9232232315        2.8200510165       -7.9941585964
 C        -7.9326903846        0.9370796128       -6.6115945754
 C        -7.1734263545        6.7181043848       -1.8233661671
 C        -5.5345934787        5.6025735782       -0.3282357224
 C       -12.8480901899        6.6095784141        1.1253320605
 C       -11.4651306114        8.7856529949        1.3672505084
 H       -11.4807972260        9.0450769108        4.1116185384
 H       -11.4797387163        7.5368120656        5.1620529956
 H       -12.8973245687        7.8828059861        4.1498189461
 H       -11.4059950252        4.9100112257       -0.2853368442
 H       -10.7653307202        4.5376275530        1.2328784470
 H        -9.4552842957        5.2785819066       -1.5033372259
 H        -9.4578118660        3.6880193247       -0.8760665838
 H        -7.0086135372        5.1621220796       -3.9960620385
 H        -8.4698111573        4.5464370446       -3.2414088898
 H        -8.0388156248        2.3039564639       -4.0017031022
 H        -6.2626843287        2.6976567159       -4.1433671355
 H       -10.4288862916        0.3173360464       -4.8243642631
 H       -10.7381170414        0.3344739773       -6.4500329119
 H       -12.6793740681        0.1862930017       -5.2739885388
 H       -12.9355092842        1.7713594219       -6.0199338055
 H       -12.3957981198        1.1902040295       -0.8376334040
 H       -14.1149707790        1.0447522670       -1.1429505106
 H       -14.5025396391        2.4674700000        0.8180716115
 H       -12.7587825327        2.9473741836        0.8330471658
 H       -10.6289944675       -0.0248666039        3.6800016664
 H       -11.3416078381        0.2429171744        5.2183337340
 H        -9.2555556434        0.7084323284        5.7521217342
 H        -9.7217789953        2.3707073744        5.5414594934
 H        -7.6707111215        3.0909795219        7.3321396496
 H        -7.4672484576        4.7099405303        7.0858999016
 H        -6.0330398161        3.5108271637        7.1364140226
 H        -6.5069142662        0.0113999521        5.1751616477
 H        -7.3050070974        0.8632080909        6.4835037022
 H        -5.6976911982        1.3671846082        6.2719629726
 H        -5.7093209236        1.5266522951        3.1438930748
 H        -4.9831797692        2.7937748206        4.2002616796
 H        -6.1949978871        3.2478483541        3.0655648014
 H       -13.8382721945        3.4205726072        2.7770800499
 H       -13.8789521356        3.0063277060        4.5275234151
 H       -15.1152035666        2.3809926485        3.5698630728
 H       -14.0415898015        0.4765963033        4.9575498010
 H       -13.1021639041       -0.7164637372        4.0044714319
 H       -14.7557063010       -0.0701087753        3.4898343214
 H       -14.2496819743        4.5640074313       -4.1529819750
 H       -13.1072956034        3.7991483935       -5.1251419679
 H       -12.4012533610        4.6764125160       -3.7494633938
 H       -15.1191367371        1.1811716247       -3.5186512040
 H       -15.0137043007        2.1807914335       -4.8333590446
 H       -15.8340505991        2.8826145036       -3.5121416430
 H        -7.8484566923        2.9323257391       -8.3095904327
 H        -9.4337507403        3.8037599090       -7.9586840450
 H        -9.5384173022        2.1937472435       -8.5738128371
 H        -7.7788148399        0.3004808715       -5.7549457316
 H        -6.9670411314        1.0811778470       -7.2476147690
 H        -8.4978343491        0.2568897929       -7.2049172804
 H        -7.0661758665        7.5835583070       -1.1374113952
 H        -8.1917370333        6.8577581587       -2.2266849087
 H        -6.3761610389        6.8173532173       -2.5537800599
 H        -4.7479046867        5.9629041302       -1.0469008790
 H        -5.1488942170        4.6684407749        0.1109772374
 H        -5.5906183330        6.4552914191        0.4020963261
 H       -12.8944383907        5.6042391257        1.5123386174
 H       -12.9898333701        6.6905117158        0.0667511072
 H       -13.5949077763        7.1373645661        1.6646885293
 H       -10.4750937993        9.0942715492        1.6630242881
 H       -12.2841481373        9.3245580104        1.8532455792
 H       -11.4339019653        8.8899898543        0.2922836947
 Na       -9.2713261328        4.1508054943        2.8405719982
