117

 C       -11.5783382741        7.8929708242        4.1006295478
 C       -11.1137332770        7.0644349740        2.8380929684
 O       -10.4442127999        6.0206424721        3.0306197460
 C       -11.6044542297        7.4005472413        1.3878915317
 C       -10.4290194418        6.8124746462        0.4637122384
 O        -9.4869619812        7.5039933795        0.2416540546
 C       -10.6349079860        5.3815944498        0.0081114988
 C        -9.4571728694        4.6230377612       -0.6202006960
 C        -8.0583441666        4.9919918392       -0.0879397732
 O        -7.6999866115        5.0145851827        1.0663647764
 C        -6.9450847630        5.3000339407       -1.1287983674
 C        -6.7437715588        4.0972017852       -2.1708957692
 O        -6.2639486501        3.0635195713       -1.7485639577
 C        -7.2111986413        4.3024674331       -3.6204151688
 C        -7.1883962464        3.0262985917       -4.3592740527
 C        -7.6820922781        3.3193851659       -5.8199506147
 O        -7.2828246255        4.2793574890       -6.4541184975
 C        -8.6752632036        2.2241694022       -6.3836577770
 C        -9.9805948382        2.1341816731       -5.5301763197
 O       -10.3061534930        3.0742131891       -4.8840605259
 C       -10.9323410580        0.8476577487       -5.5786127259
 C       -12.2766858739        1.3369595140       -5.1292619921
 C       -12.3079606865        1.5693590351       -3.6520412102
 O       -11.5821284397        1.0051072103       -2.8800544453
 C       -13.3667595285        2.6295072403       -3.2222171720
 C       -13.4123473464        2.7715113060       -1.6817946048
 O       -13.3002155329        3.8569358525       -1.1143515662
 C       -13.4948923973        1.4944959775       -0.8464410498
 C       -13.6620824714        1.8918755634        0.6435556326
 C       -13.0167651305        1.0197241683        1.6049157750
 O       -12.3749588211       -0.0108604761        1.4115306604
 C       -13.1631262252        1.4829716381        3.1797145839
 C       -11.6538089596        1.8927785282        3.5468793065
 O       -11.2239002391        2.9570486348        3.1157722367
 C       -10.7871408674        0.8175989187        4.2987719520
 C        -9.6030575071        1.3585508803        5.0846078607
 C        -8.5101402682        1.7942932591        4.1955301332
 O        -8.5438594836        1.6410224935        2.9760654013
 C        -7.1518040853        2.2634190169        4.8208411482
 C        -7.4822404236        3.6833970379        5.5157218931
 O        -8.1827613096        4.5143038833        4.9631446397
 C        -6.8944364160        4.0293622182        6.8891215042
 C        -6.5941459814        1.2205616033        5.8847007941
 C        -6.0635000783        2.4621994818        3.6577863914
 C       -14.1658239259        2.6740428018        3.4347524383
 C       -13.5839731335        0.2175080041        4.0389580654
 C       -13.2231600002        4.0318976628       -3.9237624600
 C       -14.7945918119        2.0511891771       -3.5706159127
 C        -9.2597312928        2.8456300542       -7.7438208771
 C        -8.0397767301        0.8087726833       -6.5010999216
 C        -7.3486747328        6.6444318173       -1.7833149270
 C        -5.5715374340        5.4496866675       -0.4731843167
 C       -12.9632639021        6.6666853265        1.3665332341
 C       -11.6373956667        8.8757648412        1.0770440971
 H       -10.7862653480        8.6760535896        4.3163276854
 H       -11.5948779151        7.3778425456        5.0350350589
 H       -12.4468786436        8.3924713165        3.8481301917
 H       -11.5379196804        5.3424692407       -0.6174110293
 H       -11.0332978249        4.8213151067        0.8546182317
 H        -9.4252091870        4.5996528777       -1.7231731405
 H        -9.5589002231        3.5860287951       -0.3077178029
 H        -6.5972993552        5.1183826261       -4.0904045038
 H        -8.2388575007        4.6901709551       -3.6264310047
 H        -7.8378611912        2.3465737296       -3.8079385770
 H        -6.1836883624        2.5814054332       -4.4200639857
 H       -10.5023002526        0.0593063019       -4.9415889046
 H       -10.8304483665        0.4620253127       -6.6082348942
 H       -13.0243997812        0.6319527429       -5.3868817862
 H       -12.5084676386        2.2077614590       -5.6657710530
 H       -12.4603773504        1.1006143870       -0.9078851217
 H       -14.1980071646        0.7638458418       -1.2455485608
 H       -14.7922179269        1.8513358190        0.8505495201
 H       -13.1469050549        2.8374302525        0.8011893899
 H       -10.4528108561        0.1686616592        3.5100462507
 H       -11.3024795356        0.1210208585        4.9105071626
 H        -9.2106513861        0.4826666364        5.6704431744
 H        -9.8565242157        2.1655039220        5.7891196364
 H        -7.0838996907        3.2152079781        7.5851594848
 H        -7.5758741444        4.8357506849        7.2693194988
 H        -5.8053814942        4.2172243143        6.9081770103
 H        -6.5356512598        0.2944125221        5.3467127721
 H        -7.3431937696        1.0866920433        6.6586701937
 H        -5.6513679024        1.5011618742        6.3229665070
 H        -5.9967552832        1.5860225260        3.0326589756
 H        -5.1590665004        2.9583266603        4.0145209212
 H        -6.4707835848        3.2315293718        2.9701567404
 H       -13.5743572010        3.5363692544        2.9862759710
 H       -14.3206605705        2.9058770472        4.4816257427
 H       -15.0736034470        2.5709054982        2.9176141459
 H       -13.3933715390        0.3524338782        5.0644743222
 H       -13.0535312702       -0.6304857927        3.6011735199
 H       -14.6643398677        0.0065788264        3.8808918290
 H       -13.9868817641        4.6968799143       -3.5278470656
 H       -13.4856476326        3.9542008206       -4.9505246145
 H       -12.1469270712        4.3262661332       -3.6940346599
 H       -14.9074957139        1.0738118915       -3.1185813754
 H       -15.0067545430        1.8251653438       -4.6110638629
 H       -15.6165620408        2.6927159465       -3.1819385724
 H        -8.5097579583        2.8289774280       -8.5594185144
 H        -9.6792330212        3.8836803897       -7.6566920145
 H       -10.0193383261        2.1545293836       -7.9482515349
 H        -7.6275476178        0.3042476175       -5.6282478471
 H        -7.1182118222        0.8951378588       -7.1848220556
 H        -8.6419840547        0.1168012312       -7.0127765040
 H        -7.4761998832        7.3600300761       -0.9744699682
 H        -8.2816437382        6.5615817765       -2.2690748303
 H        -6.5813149789        7.0513835086       -2.4593772953
 H        -4.7780474677        5.4231736292       -1.1956586215
 H        -5.3983036463        4.5580146187        0.0081951504
 H        -5.4617008575        6.2874092727        0.1972614789
 H       -12.8069913584        5.6069499785        1.6204151180
 H       -13.3555248737        6.8139888870        0.3428516097
 H       -13.6346726598        7.1773008041        2.1426432458
 H       -10.6510490674        9.3402054589        1.1403191269
 H       -12.4538953880        9.3376417436        1.7142637798
 H       -12.0237914788        8.9800980623        0.0712996934
 Na       -9.1251542175        4.1387943191        2.6815668662
