117

 C       -15.4088239158        6.7392867111       -0.3773196947
 C       -14.1641235573        6.5869212201        0.3559393237
 O       -13.6595190717        5.4683712870        0.4217863042
 C       -13.3390991801        7.8119323889        0.7798778348
 C       -12.7756871581        7.6206419168        2.2233582088
 O       -11.8762413285        6.8955899467        2.4733550027
 C       -13.2828237474        8.5934500802        3.4102726655
 C       -13.3142774799        7.9698877969        4.8260464185
 C       -14.5418480884        6.9925770145        4.7281351174
 O       -15.5943098709        7.3696260037        4.2464526872
 C       -14.1958894306        5.4800045807        5.4497257254
 C       -13.9655047376        4.5407300148        4.1280703891
 O       -12.9037992535        3.9378387111        3.9357860217
 C       -15.0868059752        4.3099903133        3.0352953970
 C       -15.1805555715        2.7958827608        2.7273069891
 C       -14.0568566000        2.1910072232        1.7706289411
 O       -13.3440717112        2.8810135630        1.1259364158
 C       -13.7810910194        0.6049619626        1.7968815050
 C       -12.2747291155        0.2667906121        2.3254425674
 O       -12.0191157409       -0.7177959050        2.9930022754
 C       -11.0121590734        1.1087947312        1.9486160595
 C       -10.2014598530        1.7397591165        3.1491096253
 C        -9.2955066059        2.8933994749        2.5484813800
 O        -9.8520361342        3.8786764441        2.0098419935
 C        -7.6961787944        2.9538551690        2.7281196832
 C        -6.8396231445        2.4326257165        1.3490696778
 O        -5.6995204273        2.8014260465        1.2581127741
 C        -7.5174283993        1.6482141784        0.2747176243
 C        -6.7191139849        1.3484070257       -1.0164980313
 C        -7.2449929768        1.6770178614       -2.4273365477
 O        -8.4768429343        1.6285652038       -2.6795095660
 C        -6.2995431511        2.0937036151       -3.6947640866
 C        -5.4489204400        0.9500976007       -4.0539459571
 O        -5.3598934573       -0.0291532795       -3.3030759948
 C        -4.4978649434        1.0169329591       -5.2821231529
 C        -3.8137510559        2.1119261361       -6.1374881465
 C        -3.0518840968        1.5757760838       -7.3046701958
 O        -2.3376345562        0.6132744540       -7.1327201466
 C        -3.1321620742        2.4693527246       -8.5171998225
 C        -4.6816837571        2.2274361107       -8.9800264846
 O        -5.4660209237        1.5326604014       -8.3533809533
 C        -5.1542999300        2.7339868004      -10.2697917132
 C        -2.8281517236        3.9565291672       -8.2207443649
 C        -2.1185193592        2.0055010927       -9.6158052550
 C        -7.3030934802        2.6545250023       -4.8458319011
 C        -5.1369827948        3.1742263827       -3.2472800743
 C        -7.3866414471        4.5110596288        3.1262361782
 C        -7.3824736209        1.9275679396        3.8504564866
 C       -14.7106010513       -0.0894033553        2.8752191472
 C       -13.8853908976        0.2307974399        0.2959577508
 C       -12.9055447239        5.3884393432        6.1740721103
 C       -15.4976795011        4.9109068113        6.0935804034
 C       -12.1038548408        7.6526686147       -0.1398918455
 C       -14.1117120474        9.1048366021        0.5757238324
 H       -16.0417331893        5.8440862616       -0.1580695264
 H       -15.2260267044        6.9848626107       -1.4625964053
 H       -15.8741904410        7.6354186334       -0.0432861908
 H       -14.3160282750        8.7506249256        3.0769413222
 H       -12.8409019722        9.5720215189        3.3822252781
 H       -13.6134677158        8.8637013836        5.4618440703
 H       -12.3378742818        7.5268271624        5.2249701144
 H       -14.5409335455        4.8026591714        2.2106710465
 H       -16.0519892986        4.7701321717        3.3421193485
 H       -16.1670758968        2.4878659728        2.2831029843
 H       -14.9704287368        2.1903152588        3.6391574499
 H       -11.2646569604        1.7804353356        1.1296578334
 H       -10.1753670485        0.3978893601        1.5964228425
 H        -9.6367134381        0.9987884166        3.6468989946
 H       -10.7934238540        2.1687391907        4.0233384614
 H        -8.4018826537        2.1899616911        0.1521693090
 H        -7.9165200879        0.7493857599        0.7755340104
 H        -6.4086116601        0.3090212056       -0.8867412974
 H        -5.7713017024        1.7669981041       -0.7687790937
 H        -5.1603599617        0.5777356674       -5.9702085225
 H        -3.8164096249        0.1478209917       -5.2283678277
 H        -3.0549655567        2.6411361184       -5.5461199327
 H        -4.4579717028        2.9123757327       -6.3865587785
 H        -6.0672870288        3.1842762195      -10.0320947378
 H        -5.3361494469        1.9283172276      -10.9383914561
 H        -4.3561800488        3.4113789420      -10.6893461343
 H        -3.6990479522        4.6941572389       -8.3971389709
 H        -2.0344191990        4.4042122534       -8.8619596180
 H        -2.5160503026        4.2224976029       -7.1909940111
 H        -1.2605434068        1.5517888340       -9.2101063382
 H        -1.6283209999        2.6687678419      -10.2818334196
 H        -2.5171593733        1.1661420405      -10.1815521172
 H        -7.8547672146        3.5369350665       -4.7139322804
 H        -8.0098396843        1.8141313823       -4.9128683263
 H        -6.6146440222        2.8436902261       -5.7347817176
 H        -4.7313514414        2.8775688247       -2.3101122693
 H        -5.6919833401        4.0878898347       -3.0426469564
 H        -4.4319790551        3.3402763243       -4.0433474989
 H        -6.4001757616        4.6529562289        3.6350750848
 H        -8.1250528993        4.9607607468        3.7376142040
 H        -7.2756037857        5.0747733247        2.2578875579
 H        -7.8100231617        2.3624901680        4.7715041548
 H        -6.2534865131        1.6740729765        3.8425318604
 H        -7.9659404023        1.0014310346        3.6690031504
 H       -15.7432825944        0.2657037916        2.7586600415
 H       -14.3954945771        0.0114479891        3.8939340359
 H       -14.6547179681       -1.1767254283        2.6739988739
 H       -13.7701568018       -0.8105283162       -0.1138956711
 H       -13.1968108478        0.8729768110       -0.2935457839
 H       -14.8939889802        0.4519643020       -0.0771809789
 H       -12.9507123508        4.5433494391        6.8323865564
 H       -12.7272500555        6.3236590420        6.6879554836
 H       -12.0862475951        5.2980806002        5.4838622103
 H       -15.6323155779        5.3694914482        7.0915988792
 H       -15.4502122852        3.8872923202        6.0010466383
 H       -16.3085274504        5.2604327259        5.5116399533
 H       -11.5945366126        6.6792467409       -0.0296786026
 H       -11.2592915525        8.3602972642        0.0479768996
 H       -12.2750331229        7.7449176046       -1.2140896983
 H       -13.6117675319        9.9929044385        1.0020982349
 H       -15.0510086007        9.0248537800        1.1516202757
 H       -14.3253201318        9.4643352346       -0.4038013040
 Na      -11.9678843806        4.4507399683        1.9145833249
