117

 C       -11.1676181797        8.5048740667        3.6130240764
 C       -10.9520734350        7.3586624296        2.5730048284
 O       -10.5977222509        6.2713700614        3.0132109710
 C       -11.5558991094        7.4561926520        1.1306628179
 C       -10.6574625834        6.7254508852        0.0464384816
 O        -9.8813852128        7.3964656034       -0.5514863961
 C       -10.8522688154        5.2544710452       -0.4241505310
 C        -9.6329653228        4.6857853877       -1.1764259691
 C        -8.2931794123        4.8148098478       -0.3551019211
 O        -8.2371445406        4.6592458662        0.8254485119
 C        -7.0222815349        5.1865886303       -1.1687414454
 C        -6.8351810239        4.0742463558       -2.2728462134
 O        -6.4554301468        2.9622358784       -1.9106229581
 C        -7.1538098953        4.4543572440       -3.7215145442
 C        -7.2044257378        3.1229286034       -4.4745195933
 C        -7.7652124529        3.2914433196       -5.8679046557
 O        -7.4950429215        4.2702649720       -6.5450288378
 C        -8.6086153120        2.1164130118       -6.4987025907
 C       -10.0011287035        1.9486229819       -5.5257138693
 O       -10.1110764892        2.7628969796       -4.6525350524
 C       -10.9205191624        0.7011163548       -5.5371553494
 C       -12.3457937619        1.1419525859       -5.1478427646
 C       -12.3547106620        1.2979238946       -3.5768944096
 O       -11.6829964623        0.5936508143       -2.9141461765
 C       -13.3982378246        2.2890964137       -3.0009769344
 C       -13.4250515209        2.3007156363       -1.3835601291
 O       -13.3902780134        3.3872742326       -0.8108576536
 C       -13.5215400501        0.9913713477       -0.5119672528
 C       -13.8173973301        1.4713931797        0.9283468620
 C       -12.7837279424        1.1225368382        1.9202340546
 O       -11.9331736091        0.3059577479        1.6692892550
 C       -12.8871702970        1.5834087958        3.4274342470
 C       -11.4258975816        2.0416120743        3.8384145329
 O       -11.1716233891        3.2292619971        3.8773313779
 C       -10.4490327194        0.8947939915        3.9826774966
 C        -9.2870546456        1.1670388505        4.8669300817
 C        -8.2308878746        1.9781994686        4.2361590480
 O        -8.3965617751        2.2527196106        3.0919910696
 C        -7.0525221896        2.5292073148        4.9838093711
 C        -7.5697294851        4.0489484034        5.3990363098
 O        -8.4733401639        4.6153022799        4.8912887191
 C        -6.7806908358        4.6844626282        6.5296869074
 C        -6.6772470387        1.6830597511        6.2209196129
 C        -5.9082072029        2.8293796957        4.0682193767
 C       -13.8181805105        2.7366408565        3.7294972576
 C       -13.3641834447        0.3238603660        4.3100876904
 C       -13.1422735927        3.7225351701       -3.4253142497
 C       -14.8111277305        1.8659371816       -3.5118808183
 C        -9.2427962464        2.4857582470       -7.8783369242
 C        -7.8701444145        0.7703346262       -6.5364222103
 C        -7.2500414373        6.6925957246       -1.7234038691
 C        -5.7881123778        5.1677472952       -0.2989957535
 C       -12.9223001630        6.7389121682        1.2574125585
 C       -11.7875755738        8.8782344309        0.7431853623
 H       -10.9736739895        9.4924555606        3.0307868176
 H       -10.3920990012        8.4255859105        4.4273544914
 H       -12.1601369087        8.6205572258        3.9567737855
 H       -11.7347532063        4.9829690011       -1.0687220648
 H       -10.9445389127        4.6129167994        0.4316043038
 H        -9.4990973458        5.1465792135       -2.1415240476
 H        -9.8187706438        3.6157201931       -1.2953964112
 H        -6.5135751339        5.1699988882       -4.2098647122
 H        -8.0747920491        4.9818767193       -3.6150164334
 H        -7.7733194504        2.3260440001       -3.9245037962
 H        -6.2518922481        2.6474997910       -4.5440479827
 H       -10.5792720498        0.1196186100       -4.6954909842
 H       -10.9085534623        0.1809892766       -6.4952856740
 H       -12.9906338037        0.2970352166       -5.5370575911
 H       -12.6202757860        2.0963220732       -5.6796123712
 H       -12.5797207945        0.4668139568       -0.6213496460
 H       -14.3645365489        0.3186473529       -0.8121197180
 H       -14.6870912252        0.9345497101        1.3278587615
 H       -13.9480734254        2.5177684470        0.8928069835
 H       -10.2074475697        0.5369696244        2.9284240622
 H       -10.9741293595        0.0008439446        4.3964028816
 H        -8.8537917167        0.1988802480        4.9329274797
 H        -9.6039495918        1.6168111404        5.8198261873
 H        -6.8880559254        4.3554875536        7.5480955386
 H        -6.9134418523        5.7678274640        6.3324877255
 H        -5.7252706465        4.5581011330        6.2834837165
 H        -6.5402916783        0.6649937567        5.9143713037
 H        -7.4993510785        1.7603353952        6.9552409689
 H        -5.7452865764        2.0231123029        6.6327336255
 H        -5.3397264962        2.0338885565        3.6310503947
 H        -5.1568009828        3.4513285301        4.5395988302
 H        -6.3790330811        3.3746289641        3.2283812222
 H       -13.7657260375        3.3515035652        2.8151704140
 H       -13.4615119481        3.3098439968        4.5656260034
 H       -14.8004046661        2.4201671452        3.7892733540
 H       -13.1391312653        0.5581113823        5.3412298160
 H       -12.8888516068       -0.6469408415        4.0266272281
 H       -14.4718119846        0.3154726733        4.2068985210
 H       -13.4761841619        4.4048586599       -2.6206704034
 H       -13.5458164723        3.9072850280       -4.3810322778
 H       -11.9991854754        3.8136227905       -3.4101612216
 H       -15.2207975902        0.9490283435       -3.1683734481
 H       -14.7644363318        1.8820916317       -4.6188647583
 H       -15.5922111363        2.6159509422       -3.3294015569
 H        -8.4068806284        2.5763149978       -8.6159778300
 H        -9.7938354292        3.4815278825       -7.8299841715
 H        -9.7295014455        1.6383811383       -8.2764151465
 H        -7.4477537704        0.4468156928       -5.5852686516
 H        -7.0230710386        0.5784802158       -7.2814692323
 H        -8.5614171718       -0.0011143347       -6.7953055570
 H        -7.3079703248        7.3735848639       -0.8768908509
 H        -8.0726911669        6.8046543894       -2.3682140727
 H        -6.3306992746        6.8992933252       -2.3243943373
 H        -4.8495975154        4.9502863867       -0.8735470736
 H        -5.9315055631        4.5513066034        0.5430953012
 H        -5.6175192971        6.1731820984        0.1920248900
 H       -12.7322650281        5.7464185708        1.6104010025
 H       -13.2447220491        6.6873199369        0.2316743201
 H       -13.6665048016        7.3180882281        1.8909974380
 H       -10.8676540829        9.4570311102        0.6545979789
 H       -12.3696861260        9.4084489171        1.5729799063
 H       -12.3645566991        8.9518136229       -0.1599214110
 Na       -9.4490468274        4.3437434018        2.7677714594
