117

 C       -11.2230984070        8.3170970752        3.6709574884
 C       -10.9641912595        7.1485644186        2.6967365203
 O       -10.5350226380        6.1335081800        3.1664252974
 C       -11.4753774994        7.3167806045        1.1889721727
 C       -10.6427006132        6.7326657234        0.1091117483
 O        -9.7787632111        7.4278804924       -0.4439688700
 C       -10.7290930734        5.3080508860       -0.1789430271
 C        -9.5997296455        4.7810494892       -1.1067624538
 C        -8.2733556444        4.9441481890       -0.3575697350
 O        -8.1573562733        4.6155750911        0.8460350839
 C        -6.9920672320        5.3745345639       -1.2037080716
 C        -6.8457084903        4.1664574281       -2.2506977370
 O        -6.5903665258        3.0747213482       -1.8178997093
 C        -7.1931280493        4.3716746104       -3.7779459053
 C        -7.1525017499        3.0607191506       -4.4532381227
 C        -7.7690306795        3.2370514034       -5.8747796896
 O        -7.4929576564        4.1606408618       -6.5932073109
 C        -8.6610664957        2.1424855958       -6.4098650518
 C        -9.9365315540        2.0175066055       -5.5189705921
 O       -10.1897385205        2.7866002866       -4.5584309433
 C       -10.9064788851        0.7924271636       -5.8085562445
 C       -12.3131019867        1.1205517020       -5.1841502632
 C       -12.3481842558        1.3439763298       -3.6494443698
 O       -11.5927086383        0.8443982581       -2.7979646216
 C       -13.4570607185        2.3910246808       -3.1452307821
 C       -13.5046660556        2.4749440291       -1.4700514056
 O       -13.2656433923        3.5193527066       -0.9051510561
 C       -13.6705084884        1.1581896560       -0.6410259995
 C       -13.9996196905        1.4358892752        0.8679227433
 C       -12.9209763952        1.0149144323        1.9551120997
 O       -12.0241146234        0.2943478432        1.5821828459
 C       -13.0971773999        1.5059999571        3.4348934014
 C       -11.6289819025        1.8460047640        3.8507955164
 O       -11.2695162436        2.9990123505        3.8733830503
 C       -10.5812379983        0.7682486355        4.0680865905
 C        -9.2825601288        1.0968571961        4.9283672176
 C        -8.3187376618        2.0342584981        4.2541909221
 O        -8.3894583917        2.0257774389        3.0377810203
 C        -7.0638913649        2.6245638220        4.9867571324
 C        -7.4495225931        3.9725358947        5.6364915159
 O        -8.4107433803        4.5715526781        5.1357611490
 C        -6.5138096783        4.5951542362        6.7390361747
 C        -6.5213166390        1.7125373565        6.0935028721
 C        -5.9125717816        2.8577218457        3.9548317308
 C       -14.0302915810        2.7627659281        3.4772556751
 C       -13.6212774579        0.4033958691        4.3954006087
 C       -13.0445448396        3.8572549498       -3.7777800945
 C       -14.8624382229        1.9802143640       -3.5771600761
 C        -9.1896187007        2.6494394515       -7.8297873325
 C        -7.8444219337        0.8814951962       -6.5850038488
 C        -7.1292128959        6.7536935067       -1.9268519135
 C        -5.7614248314        5.3645471580       -0.2513212612
 C       -12.9011779738        6.6470220746        1.2303389808
 C       -11.5860206080        8.8746676715        0.7803284759
 H       -10.8719858703        9.2514139744        3.5291825827
 H       -10.9349580765        7.9904937670        4.6696374690
 H       -12.3517669790        8.4191089089        3.5350533188
 H       -11.7009251349        5.0575200624       -0.5570220285
 H       -10.7229412000        4.7326149082        0.7811863970
 H        -9.5481267229        5.3312451856       -2.0534081962
 H        -9.6563345360        3.7127308107       -1.2590032231
 H        -6.4327173130        5.0455915577       -4.2131772933
 H        -8.1046843308        4.9770744423       -3.8914322868
 H        -7.5906940138        2.3204985481       -3.8326072335
 H        -6.1127761675        2.6360388266       -4.5794016722
 H       -10.4358046376       -0.0981443916       -5.3111376913
 H       -11.0114090431        0.6823375818       -6.9009054658
 H       -12.9799832760        0.3660958986       -5.4794687478
 H       -12.6350474330        2.0372073326       -5.5818285345
 H       -12.7163176724        0.5872933426       -0.7122190463
 H       -14.4842041014        0.6412805723       -1.1207339234
 H       -14.8339566194        0.8063356145        1.1822821807
 H       -14.1305550491        2.5527555742        0.8824971043
 H       -10.3179180941        0.3139630916        3.1393417006
 H       -11.1109888859       -0.0494287876        4.5382309496
 H        -8.6598145606        0.1614038115        5.0255033970
 H        -9.5462949438        1.5864791268        5.8638094977
 H        -6.9772365350        4.1550238233        7.6369700379
 H        -6.6078754472        5.6873273414        6.7867799620
 H        -5.4474539607        4.2405672292        6.7694114472
 H        -6.2610222928        0.7052896994        5.7736164493
 H        -7.2232304131        1.7664673755        6.8690269676
 H        -5.5683698504        2.1472418754        6.3989818343
 H        -5.3018894638        1.9180936800        3.8883439866
 H        -5.2280633549        3.6251318079        4.3952326293
 H        -6.1636415274        3.0857325584        2.9314266799
 H       -13.5994561539        3.6502248372        3.0732540091
 H       -14.0799686878        2.8756613792        4.5509649275
 H       -14.9977771686        2.5453942284        2.9335962788
 H       -13.2637455788        0.6685365851        5.3903625701
 H       -13.2580064859       -0.5646643854        4.1367267405
 H       -14.6980875454        0.4625921278        4.3968437932
 H       -12.9759101614        4.5913603119       -2.9881528604
 H       -14.0177749496        4.0360597441       -4.3297001667
 H       -12.1294865265        3.9023407159       -4.2949413248
 H       -15.2127977017        1.0097678197       -3.1561119949
 H       -15.0534076690        1.9710108943       -4.6288967731
 H       -15.5997718136        2.6246513922       -3.1002334090
 H        -8.4229911164        2.8655082208       -8.5569363625
 H        -9.7301459240        3.5145403579       -7.6269423588
 H        -9.7324784850        1.8042052578       -8.3113060869
 H        -7.6285142515        0.3524547144       -5.6620023177
 H        -6.8457912394        1.1344485401       -6.8304757132
 H        -8.1294655895        0.1528322431       -7.3612171265
 H        -7.2441306555        7.5370134653       -1.1977071382
 H        -7.8983430979        6.7416320101       -2.7253117837
 H        -6.2337341102        6.8950631313       -2.4474894584
 H        -4.9576593670        5.3449285891       -0.9234504061
 H        -5.6760997342        4.3934066683        0.2973642049
 H        -5.6675881691        6.1120675035        0.4665981392
 H       -12.7574713481        5.5573492362        1.5310280268
 H       -13.4447681310        6.7394275636        0.2433187357
 H       -13.3939297258        7.1770418592        1.9898520772
 H       -10.6239561912        9.3517374198        1.0505443175
 H       -12.3776752477        9.4887923725        1.1342182186
 H       -11.6723579948        8.8864537757       -0.3417128523
 Na       -9.3863984308        4.1079799985        2.6978673148
