117

 C       -10.9299559584        9.2295335540        2.8524181974
 C       -11.1470321436        7.7763754223        2.2692893322
 O       -10.6893462321        6.7936028884        2.8320929046
 C       -11.9355322761        7.5237221901        0.9001992720
 C       -10.7868691841        6.8613853016        0.0583767385
 O        -9.9820301626        7.5895883808       -0.5515124250
 C       -10.8005566739        5.3505668256       -0.2266873768
 C        -9.6612191889        4.7238152660       -1.0094612319
 C        -8.3115534364        4.8138152718       -0.2990691554
 O        -8.2345243463        4.7832281095        0.9411525703
 C        -6.9939721466        5.0904917986       -1.1862681578
 C        -6.8729736683        3.8909124919       -2.2355696034
 O        -6.3586872245        2.8457526401       -1.9393392368
 C        -7.4459272962        4.1177720459       -3.6404575400
 C        -6.9834326108        3.0192590978       -4.6121503879
 C        -7.7523781360        3.1714604345       -5.8940608076
 O        -7.7033511157        4.1316499822       -6.6095949703
 C        -8.7726749460        2.0023910773       -6.2988487588
 C       -10.0626649976        1.9760381737       -5.4625474899
 O       -10.5242617042        2.8622391186       -4.7199618899
 C       -10.7385535528        0.6001450566       -5.3434362788
 C       -12.2054291534        0.8306720316       -4.8396615627
 C       -12.4238940406        1.0885935092       -3.3875250932
 O       -11.8329357242        0.4184592130       -2.5219446503
 C       -13.5165512144        2.2046614669       -2.9088982834
 C       -13.4225336202        2.2478342664       -1.3078065060
 O       -13.2153821273        3.2610365563       -0.6674843106
 C       -13.5812916589        0.9270900656       -0.5520089669
 C       -13.9366040282        1.2156661656        0.9703884273
 C       -12.7948241231        0.8692381391        1.9890518679
 O       -11.8537018435        0.2065655958        1.5744620131
 C       -12.8207112532        1.3546437957        3.4857411131
 C       -11.3362287255        1.8341941356        3.7781942907
 O       -11.1038999375        3.0294934668        3.8286504771
 C       -10.2767408174        0.7393426878        3.9969718700
 C        -9.0525707638        1.0913583646        4.8346011702
 C        -7.9922828944        2.1314800839        4.1864294077
 O        -8.0724895929        2.3805922474        2.9818681037
 C        -6.9177343501        2.8721670685        5.0898192101
 C        -7.3853286604        4.4177229868        5.3934512705
 O        -7.8664591547        5.0931195941        4.4466091392
 C        -6.8478568169        5.0551885848        6.6521314496
 C        -6.6636018141        2.0146433799        6.3846362345
 C        -5.6658158104        3.1344424689        4.1868443496
 C       -13.7005862212        2.6002848449        3.4828795860
 C       -13.4371567000        0.1990972680        4.3063903381
 C       -13.2108619535        3.6085015756       -3.4884733585
 C       -14.8747843568        1.7320691864       -3.3293925309
 C        -9.2919691727        2.3713479480       -7.7747780137
 C        -8.0574023390        0.6647314983       -6.3088878711
 C        -7.0974773261        6.5387257868       -1.7477741486
 C        -5.6740410327        5.0124858081       -0.3036500115
 C       -13.1887408215        6.6999148304        1.2897454872
 C       -12.3830568465        8.8202533857        0.1918112683
 H       -10.1754886486        9.7319127296        2.2803273036
 H       -10.6611136344        9.2423946902        3.9140310546
 H       -11.8993250315        9.9003953986        2.8793747562
 H       -11.6689962495        5.1374960258       -0.8367339553
 H       -10.8381336471        4.7347935321        0.6901677236
 H        -9.5389456675        5.2664025259       -1.9600383451
 H        -9.8160409111        3.6952305084       -1.2836243443
 H        -7.3288601007        5.1547878410       -3.9759081668
 H        -8.4836297107        3.9371850354       -3.5634451033
 H        -7.0686260987        2.0433303027       -4.2144918430
 H        -5.9137828055        3.1588388376       -4.9397364231
 H       -10.1878109161        0.0686690408       -4.5504131803
 H       -10.7288924749        0.1105995914       -6.3016709638
 H       -12.8736099684       -0.0559386060       -5.1411048729
 H       -12.6032260492        1.6688887656       -5.4535973271
 H       -12.7530589964        0.2038914861       -0.6171357450
 H       -14.4120440033        0.3946297712       -1.0131581031
 H       -14.8256251025        0.6544699604        1.3141885523
 H       -14.2039853766        2.2560744737        1.0648977249
 H        -9.9409168192        0.3354976035        2.9896350656
 H       -10.8464502938       -0.1200712755        4.4416468139
 H        -8.5169375566        0.1763949040        5.1474127650
 H        -9.3757990267        1.7101398471        5.6576512070
 H        -7.5426570185        4.7373808446        7.4268437610
 H        -6.7994603223        6.1251585243        6.5130395237
 H        -5.8089981858        4.8269510645        6.9904941436
 H        -6.6569194278        0.9395221693        6.2656011444
 H        -7.4708208001        2.2065393664        7.0212939986
 H        -5.7978129150        2.4077272570        6.9163733132
 H        -4.8995345072        2.3622398968        4.2081805911
 H        -5.0593671594        4.0023286282        4.5434747268
 H        -5.9135576612        3.3864372216        3.1839285084
 H       -13.4152409800        3.2171583171        2.6861852426
 H       -13.5372775234        3.1353579518        4.3722748520
 H       -14.7671566039        2.3502807701        3.5319665250
 H       -13.4452730493        0.5196348053        5.3515059060
 H       -12.7815346252       -0.6731792482        4.1865286494
 H       -14.4858647762       -0.0544291843        3.9868074538
 H       -14.1832030969        4.0315643505       -3.7052112142
 H       -12.4199696163        3.6042729452       -4.3139292769
 H       -12.6787214742        4.2045666888       -2.7863362036
 H       -15.0629637392        0.7231462095       -2.9422788855
 H       -15.1043248039        1.6302633044       -4.3443247278
 H       -15.6347413062        2.4418854442       -2.9868966937
 H        -8.4031667505        2.5263050558       -8.4357890510
 H        -9.8709584980        3.2780644755       -7.7090544101
 H       -10.0510999093        1.6440504225       -8.1664914279
 H        -8.1410199416        0.1942392072       -5.3158274866
 H        -7.0273592048        0.7338589874       -6.6053750690
 H        -8.4722636895       -0.1580918366       -6.9364879267
 H        -7.2342703729        7.2563143741       -0.9543829750
 H        -8.0019019207        6.6569157448       -2.3622971054
 H        -6.2079379438        6.7077856776       -2.2725597409
 H        -4.8091423241        5.2888279439       -0.8614575755
 H        -5.6115367524        3.9447736245        0.0893250860
 H        -5.6120115447        5.6898512034        0.5254933354
 H       -12.9558153748        5.7513507176        1.8721127584
 H       -13.6824232880        6.4695212654        0.3061268093
 H       -13.8509044634        7.3097987353        1.8356087110
 H       -11.5295386817        9.5268230230        0.0417414771
 H       -13.0953590214        9.3635796911        0.7901650552
 H       -12.7482101726        8.7338266680       -0.8693976035
 Na       -9.4428150430        4.2686609814        2.8482196634
