117

 C       -10.8839058897        9.3274524976        2.5108354167
 C       -11.1415611842        7.8180986392        2.2657893973
 O       -10.7790722389        6.9297350141        3.0143894364
 C       -11.8638890157        7.4425564648        0.8201637578
 C       -10.8098327130        6.8507138766       -0.1974108029
 O        -9.9904168408        7.5326264901       -0.7652414269
 C       -10.8553343316        5.4003588564       -0.2440320822
 C        -9.6175575869        4.8331107829       -1.0164999789
 C        -8.2092349489        4.9369825016       -0.2416588177
 O        -8.0719533375        4.6798150791        0.9322768911
 C        -6.9749572564        5.1168949315       -1.1558297725
 C        -7.0470307281        3.9142643823       -2.1667220265
 O        -6.5132140780        2.8699475015       -1.8167990430
 C        -7.7087224167        4.0128607639       -3.5386568749
 C        -7.0682322601        3.0262344403       -4.5286616233
 C        -7.9179063308        3.1156814809       -5.8810844537
 O        -7.6594715953        4.1219142211       -6.5352323597
 C        -8.7847369838        1.9714247606       -6.2578004381
 C       -10.1075454138        1.9023135964       -5.3451916949
 O       -10.4105566464        2.9356289832       -4.7749071355
 C       -10.8475424052        0.5371784618       -5.2229546049
 C       -12.3624471650        0.7396923263       -4.8210393927
 C       -12.4541238684        1.0979630703       -3.3806114445
 O       -11.5893945030        0.6495596123       -2.6689602507
 C       -13.5306126040        2.0344992781       -2.8316394291
 C       -13.5163672667        2.0604202812       -1.2579880433
 O       -13.1534608663        3.0903754851       -0.6877437604
 C       -13.8514648049        0.8069500744       -0.4574029374
 C       -13.9137256139        1.1158824993        1.0105388558
 C       -12.7691531102        0.8123387570        1.8712075316
 O       -11.8964916137        0.0485158945        1.5729125870
 C       -12.6834263290        1.4550771335        3.3568146837
 C       -11.2465347740        1.8788553623        3.7129068841
 O       -10.9739022068        3.0711346433        3.7908512002
 C       -10.1382307679        0.8665509062        3.9337194689
 C        -9.0551218711        1.2971852155        4.9432035339
 C        -8.1483079626        2.2774443301        4.2572135517
 O        -8.1905582658        2.4329917137        3.0581164116
 C        -6.9409727284        2.9378996059        5.0909688780
 C        -7.3364267695        4.4741300809        5.2878721164
 O        -7.9469734539        5.1094289605        4.4718359092
 C        -6.9168173553        5.2111222196        6.5860963859
 C        -6.5739457815        2.2120640970        6.4373687545
 C        -5.6369321636        3.0026104705        4.1931342728
 C       -13.6897256880        2.5271570447        3.7715116780
 C       -13.0773470759        0.1871543385        4.2429300700
 C       -13.2006636034        3.4118512012       -3.3419410176
 C       -14.9415441541        1.6162589898       -3.4344218506
 C        -9.4233360064        2.2151618936       -7.6786405976
 C        -7.9968147883        0.6298458889       -6.2696221906
 C        -7.0658742637        6.5120202894       -1.9398396049
 C        -5.7232549976        4.9794499500       -0.2863076959
 C       -12.9856945179        6.4113996775        1.1820928711
 C       -12.4575969660        8.7253152641        0.1345738904
 H       -10.2758749795        9.6899731844        1.6946838897
 H       -10.4856963867        9.5985234331        3.4883131051
 H       -11.7448196999        9.8645550020        2.5371577469
 H       -11.7544134765        5.0293600952       -0.7845484182
 H       -10.8440604195        4.9807441286        0.7583655434
 H        -9.5924183047        5.2823878431       -2.0180955589
 H        -9.6282285383        3.7212721464       -1.2098249183
 H        -7.7687411967        5.0541388531       -3.8719240648
 H        -8.7677884965        3.5808111800       -3.4198168008
 H        -7.2515681105        1.9755878998       -4.1646485425
 H        -6.0319091198        3.2236557518       -4.5928798649
 H       -10.4888136839       -0.0015648748       -4.3454000854
 H       -10.7300502449       -0.0597784779       -6.1612578790
 H       -12.7936425144       -0.2180097399       -5.0120742281
 H       -12.8995347585        1.4053318700       -5.5011488091
 H       -13.0898236291        0.0791985565       -0.7627994025
 H       -14.7961060795        0.2855676008       -0.7157667931
 H       -14.7375537863        0.5581206917        1.5278190568
 H       -14.3155785779        2.1778741322        1.1359656880
 H        -9.7283458617        0.7194447294        2.9636936885
 H       -10.5939643002       -0.0569739372        4.2231338616
 H        -8.3136105911        0.5279365565        5.1796930958
 H        -9.5034515652        1.7329477941        5.8653930496
 H        -7.7149913530        5.3511654508        7.2881016455
 H        -6.3820857946        6.1365157637        6.3258587435
 H        -6.1165536356        4.7101154123        7.0758047603
 H        -6.1067536097        1.2741034790        6.1356238256
 H        -7.3501501083        1.9068232686        7.2049178364
 H        -5.8187477748        2.8227639122        6.9131411811
 H        -5.1085298480        2.0658481179        4.1873929519
 H        -4.9365843894        3.7111095676        4.5700919766
 H        -5.7832786833        3.3322780939        3.1559559994
 H       -13.5127311424        3.3998755732        3.0607761784
 H       -13.4712836932        2.9519666974        4.7868466065
 H       -14.7040940827        2.2220105137        3.8232540729
 H       -13.1190956815        0.4544368891        5.2847290133
 H       -12.4901113536       -0.7210438525        4.0618205523
 H       -14.0868572528       -0.0290049786        3.9435747173
 H       -14.0034144104        4.0468064041       -2.9831253220
 H       -12.9829305264        3.4845159885       -4.3454776215
 H       -12.2051430042        3.6720281027       -2.9182252110
 H       -15.3958858995        0.6655030197       -3.2595997090
 H       -14.8860752484        1.6073605489       -4.5641742197
 H       -15.6568333467        2.4088769009       -3.1865748116
 H        -8.6508854909        2.2375881173       -8.4319319398
 H        -9.9826113634        3.1679258012       -7.7315088520
 H       -10.1771605284        1.5204072793       -7.8612315006
 H        -7.6196628281        0.2989412257       -5.3011506493
 H        -7.0735765435        0.7521136784       -6.9231713879
 H        -8.5331873287       -0.2149285175       -6.6296075481
 H        -7.0567690565        7.3632873004       -1.2451021157
 H        -8.0032129835        6.5765945451       -2.4423997987
 H        -6.1748817885        6.5824553928       -2.6351121544
 H        -4.7919055914        4.9782437925       -0.9457329990
 H        -5.7431172074        4.0489414649        0.2362235150
 H        -5.5248243338        5.8689800826        0.3835532228
 H       -12.5279849878        5.7012559483        1.8030687654
 H       -13.4669586070        5.9299661329        0.3942600780
 H       -13.7430319368        6.8862292154        1.8212319275
 H       -11.7345813468        9.3537737368       -0.3264384823
 H       -13.0970222090        9.3888351748        0.7494833338
 H       -13.0447590932        8.4557861045       -0.7033762674
 Na       -9.3744193840        4.7208010271        2.8666446796
