117

 C       -15.5691829679        6.6699445354       -0.3530886776
 C       -14.1076887699        6.6112395927        0.4035178777
 O       -13.4732522866        5.5621637158        0.4661038528
 C       -13.3774468117        7.9324277853        0.8787256547
 C       -12.7924188336        7.8018150172        2.2676466091
 O       -11.9684957564        6.9273627354        2.5325047318
 C       -13.3086603904        8.7677532867        3.4183204506
 C       -13.3075637228        7.9682484313        4.6458720207
 C       -14.3897986071        6.9904774002        4.7261273166
 O       -15.4227139861        7.1034473614        4.0119005483
 C       -14.2487359407        5.4952567312        5.2665270765
 C       -13.9618014229        4.6761828066        3.9965480062
 O       -12.8900146976        4.2121224961        3.9841905668
 C       -15.0505157994        4.3165139807        2.9652381965
 C       -15.1192942949        2.8230181700        2.7221306458
 C       -13.9121371514        2.2100281602        2.0060642921
 O       -13.3878891037        2.7440191742        1.0598043590
 C       -13.7338099725        0.6496021634        2.0025555277
 C       -12.1581451856        0.2391049228        2.4197350356
 O       -12.0689877974       -0.8690745765        2.9409306716
 C       -11.1077693621        1.1942587763        1.9400512545
 C       -10.2535914228        1.7418234793        3.0512939949
 C        -9.3441586580        2.8187162307        2.5582879262
 O        -9.7382199068        3.7586591560        1.9034745732
 C        -7.8032350647        2.7547455887        2.7924919221
 C        -6.9673489254        2.4724884233        1.4270747972
 O        -5.8189499092        2.7218788923        1.4718556735
 C        -7.7181947903        1.7474846921        0.1161246261
 C        -6.7566860825        1.4196794293       -1.1119081254
 C        -7.3922404617        1.7815371937       -2.4873480016
 O        -8.5038752004        1.6026881600       -2.8316281886
 C        -6.2522323044        2.1612250067       -3.5910877606
 C        -5.2952788496        0.9831164787       -4.0807526020
 O        -5.2178919898        0.0244028334       -3.4088362583
 C        -4.5618931441        0.9896015589       -5.4574756076
 C        -3.7963930286        2.2413193186       -5.9429018635
 C        -2.9773268906        1.5861467400       -7.1516648429
 O        -2.3869866088        0.5120592782       -7.1522451009
 C        -3.1678825550        2.2571011355       -8.5557002588
 C        -4.7053939897        2.0732133380       -9.0758110870
 O        -5.3857070843        1.5283048564       -8.2660212171
 C        -4.9526835842        2.6749779329      -10.5286847910
 C        -2.8287842494        3.7360904792       -8.3415156046
 C        -2.0912770886        1.5669519698       -9.4329525714
 C        -7.2086657996        2.5974086220       -4.7700582717
 C        -5.3847432515        3.2740534668       -3.1884860041
 C        -7.4525312614        4.2012985071        2.9620746751
 C        -7.3496023481        1.9421013763        4.0133486739
 C       -14.6935000429       -0.0120215609        3.0057689192
 C       -13.9295870213        0.1107378489        0.5890408786
 C       -13.0502282338        5.5492541223        6.2447428093
 C       -15.3737034736        4.9967683398        6.1739296949
 C       -12.1221762918        8.0716505117       -0.1263661497
 C       -14.1500412148        9.2222196636        0.5408190724
 H       -15.8490434310        5.7442326676       -0.6159716872
 H       -15.5625534272        7.4258320992       -1.1230550352
 H       -16.2862520062        7.1113068325        0.3658707623
 H       -14.1409470545        9.1896381637        2.9747249240
 H       -12.5665939913        9.5936881690        3.6742857587
 H       -13.2872458448        8.7016627994        5.4801078008
 H       -12.4077024733        7.4447390441        4.6536682053
 H       -14.9364444218        4.9147840055        2.0434548566
 H       -15.9141633381        4.5843477446        3.6442277573
 H       -15.8463201136        2.5779651330        1.9602071336
 H       -15.3088013176        2.2485252556        3.6185288509
 H       -11.7199098243        2.0253416083        1.5140241283
 H       -10.4430042571        0.7887737227        1.0914670403
 H        -9.7187181137        1.0701751370        3.6520961807
 H       -10.9447722682        2.2251543519        3.8098026342
 H        -8.6167946843        2.2320642555       -0.0961814873
 H        -8.1162555227        0.8393354609        0.5869342425
 H        -6.3562650180        0.3944337921       -0.8944833530
 H        -5.8779165033        1.8968148373       -0.7895037891
 H        -5.2222968250        0.6517459794       -6.2150258958
 H        -3.8979247171        0.1167656188       -5.4229335485
 H        -3.2309732669        2.6486910562       -5.1153276680
 H        -4.3981716251        3.0890983687       -6.1928087868
 H        -5.9055646208        3.0994591020      -10.6283108247
 H        -4.9018945593        1.7760639228      -11.2418653994
 H        -4.0534016018        3.2711333664      -10.7257426957
 H        -3.1858465099        4.4532440564       -9.0852301875
 H        -1.7433069141        3.9544071601       -8.3265176725
 H        -3.2172882173        4.2122698448       -7.3816357527
 H        -1.1077675847        1.6068180504       -9.0501740742
 H        -1.8017279719        1.9821202437      -10.4580718223
 H        -2.2624528005        0.4977787591       -9.5441290418
 H        -7.9109913180        3.3506901620       -4.4083017214
 H        -7.7981858776        1.6805836354       -4.8792613283
 H        -6.6879513821        3.0921457049       -5.6832277819
 H        -4.8210837242        3.0217173681       -2.3272027550
 H        -5.8309596160        4.2554569172       -3.0054905987
 H        -4.7928616862        3.3573278335       -4.1617958744
 H        -6.4385085240        4.4644619534        3.4027150531
 H        -8.1652496923        4.7633529670        3.5347044662
 H        -7.3906155444        4.6417118717        1.9517259224
 H        -8.0119340255        1.9107593557        4.8641765495
 H        -6.3649739227        2.2970060286        4.1289714959
 H        -7.2825441159        0.9138347692        3.5704297904
 H       -15.7471689883        0.3542394650        2.9095164723
 H       -14.3303859746        0.0313062730        3.9797223619
 H       -14.6747453931       -1.0559351719        2.8203943881
 H       -13.6414648288       -0.9359734454        0.3917236156
 H       -13.3493601272        0.7263467665       -0.0714809208
 H       -14.9431838738       -0.0292272513        0.1716604284
 H       -13.1401361850        4.5392968547        6.6351330790
 H       -13.2900042338        6.2577781892        7.0628038501
 H       -11.9834577647        5.8103052335        5.8841852701
 H       -15.2347478692        5.7024283185        6.9881691408
 H       -15.1426491857        3.9388707137        6.3895366318
 H       -16.3709808005        5.1128749378        5.8695590593
 H       -11.2572956325        7.5071716406        0.0916141767
 H       -11.7066781870        9.0586474855       -0.2032207182
 H       -12.3386496205        7.7405467100       -1.1719063709
 H       -13.6922177141       10.1018329260        0.9420431693
 H       -15.1647188520        9.2223668587        0.9201745279
 H       -14.1562796917        9.5754496358       -0.5117388284
 Na      -11.9468179546        4.5165252674        1.8225221718
