117

 C       -10.9684868382        8.7155684207        3.3155507235
 C       -11.1059675512        7.4700068467        2.5187424047
 O       -10.4430402265        6.4730916262        2.7495392970
 C       -11.7919476566        7.4913892106        1.0864964118
 C       -10.7643168405        6.7934353165        0.0427067647
 O        -9.8813366790        7.4652557523       -0.4697420923
 C       -10.8764749761        5.3305328617       -0.1394483379
 C        -9.7230552624        4.7145024193       -0.9794175371
 C        -8.3884101791        4.8705871259       -0.2895171329
 O        -8.2493129730        4.7441847293        0.9433552984
 C        -7.0766458139        5.1384679667       -1.1282832607
 C        -6.8052216620        3.9954587736       -2.2487050113
 O        -6.2906112930        2.9854562902       -1.8899072614
 C        -7.1577669428        4.2485974553       -3.7504357729
 C        -7.1744192363        3.0303058744       -4.6255435207
 C        -7.8360426491        3.2242849407       -5.9817618007
 O        -7.6868141055        4.1959575637       -6.6593351350
 C        -8.7328170588        2.0687429123       -6.5053978849
 C        -9.8809161168        2.0601930967       -5.4541191900
 O       -10.1344364521        2.9687401836       -4.6768656827
 C       -10.8169871254        0.8039761494       -5.5455438174
 C       -12.2435350337        1.0709093226       -4.9626703038
 C       -12.3120508522        1.2050690614       -3.4669853157
 O       -11.8168074684        0.3445965707       -2.7207657253
 C       -13.3909192768        2.1830402111       -2.8829954334
 C       -13.3905236240        2.3630889020       -1.3081307140
 O       -13.3770361215        3.4803413386       -0.8342201495
 C       -13.4657196406        1.0352490183       -0.5417851367
 C       -13.9547568184        1.2961145027        0.9270680911
 C       -12.7671667942        1.0277309057        1.9628276897
 O       -11.8380010484        0.2849949174        1.6525692769
 C       -12.8722553246        1.4971074063        3.4289766855
 C       -11.3879680910        1.8887189920        3.7976274849
 O       -11.0135172958        3.0650627785        3.9030958615
 C       -10.3455590418        0.8191441850        3.9398865467
 C        -9.1854821182        1.2786782381        4.8566495153
 C        -8.1236005680        2.0619815950        4.1373956275
 O        -8.2536047935        2.2858294681        2.9364754891
 C        -7.0098942727        2.6442835330        4.9266265376
 C        -7.4955005165        4.1553137404        5.3657034552
 O        -8.3213304421        4.8444408815        4.7507506904
 C        -6.9558745682        4.9224798611        6.5608496140
 C        -6.7334806965        1.8633785663        6.2816137976
 C        -5.6668846691        2.7077559573        4.1269235650
 C       -13.7252117148        2.7295712944        3.6308862608
 C       -13.4239124718        0.3009608029        4.2934246654
 C       -13.1317445912        3.5543218079       -3.4660049325
 C       -14.8527070439        1.7691542357       -3.2121904460
 C        -9.2724171161        2.3191375316       -7.9011442201
 C        -7.9345208937        0.7138410749       -6.4817053892
 C        -7.0947558272        6.5315367820       -1.7767844637
 C        -5.8813558819        5.0584194899       -0.1336538845
 C       -13.1075163049        6.7077926549        1.0882896928
 C       -12.0376029786        8.8793092641        0.5573350521
 H       -10.5523237949        9.5441013990        2.7985231546
 H       -10.4028966894        8.4806602033        4.1494568628
 H       -11.9944678984        9.0315642671        3.5983927445
 H       -11.7653227346        5.0651880518       -0.6875737243
 H       -10.9196886589        4.7855705426        0.8479486398
 H        -9.6681914559        5.0940247827       -2.0249793671
 H        -9.8859615907        3.6101805301       -1.0085256193
 H        -6.4751326659        5.0495834027       -4.1244967940
 H        -8.1718227882        4.7581955194       -3.7636714357
 H        -7.7507819439        2.2772257832       -4.1230994083
 H        -6.1958375356        2.5111691505       -4.7517757426
 H       -10.3787488170       -0.0028454637       -4.9285528781
 H       -10.9262769977        0.5545359207       -6.5975760396
 H       -12.8656138725        0.1973804189       -5.1497064915
 H       -12.6801471202        1.9051385383       -5.5089158555
 H       -12.4668865522        0.5209945589       -0.5360036163
 H       -14.1407115627        0.3193790091       -0.9951174049
 H       -14.8060919573        0.6375524039        1.1790462473
 H       -14.2346584111        2.4074709708        0.9949479443
 H       -10.1800825287        0.4840668447        2.9447354955
 H       -10.7764188272       -0.0425236270        4.4272936740
 H        -8.7337811866        0.3265379010        5.2184870478
 H        -9.5781962750        1.9215506852        5.6328176380
 H        -7.2573821775        4.2086732851        7.3644709903
 H        -7.3961379389        5.8725516110        6.6520674727
 H        -5.9013733417        5.1057455285        6.6560528758
 H        -6.4102796045        0.8256032963        6.0422872757
 H        -7.6604493793        1.7854906363        6.8540831176
 H        -5.9712261273        2.3885656540        6.8906328065
 H        -5.4633177312        1.7428493623        3.6322983640
 H        -4.7610398829        2.8263043396        4.6965335269
 H        -5.7047309506        3.4304421982        3.3335515032
 H       -13.3783862493        3.5470857989        3.0112602707
 H       -13.7189994704        2.9909174524        4.7226852293
 H       -14.8067588238        2.4686636967        3.3475256995
 H       -13.3918112542        0.4898682314        5.3881364947
 H       -12.7891232433       -0.5151872486        4.0548485915
 H       -14.4097801787        0.0960831652        3.9830162594
 H       -14.0273565167        4.1613223073       -3.4894546708
 H       -12.5850370767        3.3940577065       -4.4312178918
 H       -12.4281416221        4.0430006134       -2.8541538051
 H       -15.0045305581        0.6958965579       -2.9389484287
 H       -15.1851828663        1.9011558679       -4.2334333258
 H       -15.5942401665        2.3590548604       -2.6965763605
 H        -8.5895509009        2.2614010343       -8.7023038284
 H        -9.8210498501        3.2133542211       -7.8909643743
 H        -9.9942893312        1.4600707203       -8.0476113848
 H        -7.3326131072        0.4134407238       -5.6276682714
 H        -7.3460258869        0.7027314667       -7.3285550055
 H        -8.5479082588       -0.2163505724       -6.6439234883
 H        -7.2480428305        7.1917263404       -0.9179895576
 H        -8.0125047582        6.6584275617       -2.4277111101
 H        -6.1936168905        6.7685424616       -2.3136158560
 H        -4.9724567180        5.4182695735       -0.5930210668
 H        -5.8313564096        4.0478354838        0.3674193804
 H        -6.0106611019        5.7063139613        0.7185796195
 H       -13.0439393697        5.7103444353        1.4675159559
 H       -13.5840913875        6.7398099196        0.1330731643
 H       -13.7161678363        7.3162858791        1.7392257803
 H       -11.1606371306        9.4624162228        0.3046476104
 H       -12.5732188800        9.4617130650        1.2383429623
 H       -12.6201985656        8.7791498957       -0.3730329406
 Na       -9.5560361550        4.4792421341        2.7795282543
