117

 C       -10.6619778107        9.3527027598        2.0560063889
 C       -11.0666094836        7.8238546212        2.0277655632
 O       -10.5411441396        6.9441800831        2.7303930827
 C       -11.9907051877        7.3171367395        0.8668722065
 C       -10.9782223408        6.5866787914       -0.1118488166
 O       -10.3205817612        7.4014823407       -0.7637081038
 C       -10.8757255249        5.1336651077       -0.2321195022
 C        -9.5227732700        4.6499183578       -0.8916632005
 C        -8.2361106352        5.1328239730       -0.2186021335
 O        -8.1355843228        5.4171621671        0.9563975409
 C        -6.9994580467        5.0778818242       -1.1711763663
 C        -6.9989680898        3.8184323200       -2.2109408159
 O        -6.5698708441        2.7913872174       -1.7366655594
 C        -7.5589605980        3.9252888506       -3.6368218045
 C        -7.0890007406        2.7463295060       -4.5447310675
 C        -7.9577677188        2.9260527373       -5.9111499412
 O        -7.8312065200        3.9644699696       -6.5032578070
 C        -8.8917230815        1.7767933780       -6.4432394961
 C       -10.0740739325        1.6315180765       -5.3980076175
 O       -10.2959857539        2.5932020150       -4.6217519021
 C       -10.9483664600        0.3818060793       -5.3694324275
 C       -12.3404171861        0.7215085521       -4.6682681152
 C       -12.2579773929        1.1567501919       -3.1999409011
 O       -11.3781962369        0.6971021536       -2.4446985438
 C       -13.5079169529        1.9686599570       -2.6251436060
 C       -13.5116372996        2.1101688720       -1.0736999445
 O       -13.1996391505        3.1453972693       -0.4398641339
 C       -13.9113488354        0.7953113839       -0.3398619098
 C       -14.0306979555        1.0473367421        1.1611636106
 C       -12.7468709263        0.8143535359        1.9286789211
 O       -11.8309256914        0.2024175433        1.4393646383
 C       -12.6416145436        1.2758032062        3.4501175859
 C       -11.2398813686        1.9375067316        3.4176913944
 O       -11.1047332751        3.1241724733        3.1254792555
 C       -10.0671321199        1.0244971635        3.6952701179
 C        -9.0256448953        1.5640833918        4.7445507092
 C        -8.0459891792        2.5924719371        4.2564863280
 O        -8.2258665420        3.0855478838        3.1221895462
 C        -6.9026396698        3.1463395915        5.0715160330
 C        -7.2776297651        4.7738560164        5.4139200888
 O        -8.0240959632        5.4912064326        4.7298323127
 C        -6.5818541075        5.3515255257        6.6100766924
 C        -6.6682544128        2.4263775146        6.4238921553
 C        -5.5557993120        3.2455469397        4.2988177349
 C       -13.7017741913        2.4065662689        3.8061288169
 C       -12.8942898575        0.1570041549        4.3677724551
 C       -13.5453778333        3.3733417953       -3.2453780115
 C       -14.7016821662        1.1669507753       -3.0701499627
 C        -9.3366022361        2.1126101152       -7.9107238431
 C        -8.1233375083        0.4387153343       -6.3985806667
 C        -7.0473605539        6.3698122024       -1.9906421288
 C        -5.6832781863        4.9321142806       -0.3605233135
 C       -13.0331791180        6.4360399164        1.5275412839
 C       -12.6557114878        8.4139191040        0.0770720270
 H       -10.5303473626        9.6684881524        1.0921375014
 H        -9.8300162512        9.6251348755        2.6952440713
 H       -11.4598208256        9.9616327655        2.4775097364
 H       -11.6666456938        4.7431861005       -0.9291348409
 H       -11.0285520431        4.6027266435        0.6812918457
 H        -9.4477135322        4.8886041834       -1.9635060456
 H        -9.4457158182        3.5278658969       -0.9164416264
 H        -7.1205889215        4.8689398198       -3.9537197553
 H        -8.6773987150        3.9468423376       -3.6780027294
 H        -7.0840589506        1.7466380941       -4.0687276538
 H        -6.1359863350        3.0417139585       -4.8749028108
 H       -10.3591427473       -0.3494307220       -4.8241433897
 H       -11.0055920667       -0.0755437559       -6.3799877916
 H       -13.0759681248       -0.1386553117       -4.6920993834
 H       -12.8041433432        1.4606815543       -5.3905161403
 H       -13.1656848685        0.0005225762       -0.4520501258
 H       -14.8012076167        0.2595227331       -0.7317648872
 H       -14.8013299468        0.4661989361        1.7056916644
 H       -14.4548982729        2.0355908025        1.4632004045
 H        -9.5593709005        0.7172657669        2.7772190021
 H       -10.4498256644        0.1491243072        4.2002202930
 H        -8.4769862829        0.6698982343        5.0692222004
 H        -9.3883595962        1.9602736497        5.7275800798
 H        -6.8892140748        5.0532605811        7.5502495084
 H        -6.7553244211        6.4522314765        6.4807934580
 H        -5.4986577329        5.1899189123        6.4443722039
 H        -6.5082619349        1.3697519873        6.3342411207
 H        -7.5982539629        2.5765274252        6.9975072765
 H        -5.8464502338        2.7789753413        7.0141161027
 H        -5.0679051239        2.3655542146        3.9367111191
 H        -4.8838994587        3.8694694455        4.8828436851
 H        -5.6851729682        3.8715948569        3.4060282850
 H       -13.8258942846        3.2277224022        3.0802757572
 H       -13.3665950869        2.9224054242        4.6895919262
 H       -14.6555148650        2.0093178611        3.9617285766
 H       -12.7427244165        0.4802609038        5.3776207111
 H       -12.3588584095       -0.8164392616        4.1631171656
 H       -13.9841082679       -0.1041238575        4.2324663730
 H       -13.3451099980        4.1834793729       -2.5118981421
 H       -14.5401599769        3.5427994181       -3.6008140992
 H       -12.7931840534        3.4794590139       -4.0928955674
 H       -14.7062977322        0.1638210783       -2.7361877661
 H       -14.8051038137        1.1548738688       -4.1603361332
 H       -15.6154533315        1.5213167464       -2.6109697815
 H        -8.4810221750        2.4173284307       -8.5898446714
 H       -10.0679709953        2.9692833321       -7.9275376216
 H        -9.8623027482        1.2668768744       -8.2722599122
 H        -7.8863132061        0.0133122031       -5.4349908120
 H        -7.0514343886        0.5746141779       -6.8320058876
 H        -8.6381763762       -0.1975209795       -7.0586180105
 H        -6.9174935259        7.1717619319       -1.2759259529
 H        -7.9451832310        6.4686986088       -2.5260076898
 H        -6.1913029693        6.4642912064       -2.6947116106
 H        -4.8483878322        5.1967462367       -1.0241674934
 H        -5.3811452748        3.9268976774       -0.1224965692
 H        -5.7554890997        5.5505770036        0.5654578254
 H       -12.6844228732        5.5992718863        2.1277445178
 H       -13.7472535425        6.0369270998        0.8224255709
 H       -13.5884188010        7.0775946383        2.1635434863
 H       -11.9616346495        9.0897792268       -0.4107373339
 H       -13.3574807442        9.0940291116        0.6377621104
 H       -13.3286403994        8.0680820173       -0.6781896927
 Na       -9.5279238371        4.7846237074        2.8414529451
