117

 C       -10.6809689842        9.1793342571        0.9672419579
 C       -10.9911820088        7.7842068955        1.4559516663
 O       -10.2135165922        7.2255945099        2.1960759446
 C       -12.1348782494        6.9438138385        0.7676040393
 C       -11.2980793688        6.1039502286       -0.2777636893
 O       -10.7954449937        6.6922441853       -1.1920644580
 C       -10.9498743222        4.5846679042       -0.0475713265
 C        -9.6403876195        4.1999267793       -0.7734006522
 C        -8.3969434301        4.9687319751       -0.2681963282
 O        -8.2526290327        5.2938958086        0.8935724334
 C        -7.2375468035        5.2143779575       -1.3588264989
 C        -7.0738830544        3.8437443231       -2.0831085392
 O        -7.0223723650        2.8141591332       -1.4524810336
 C        -7.1077654467        3.7593370168       -3.6781985054
 C        -7.4493533278        2.4089244283       -4.2023548968
 C        -7.9512602014        2.5160871321       -5.7239781076
 O        -7.6125224828        3.4203011341       -6.4554363360
 C        -8.9417314486        1.3496373841       -6.0966796886
 C       -10.2207103552        1.4696151643       -5.2535440083
 O       -10.4750749134        2.5539172422       -4.7298636857
 C       -11.0675476218        0.1842974605       -5.0969244217
 C       -12.4442240792        0.3965100955       -4.5875633912
 C       -12.4429907061        0.7281401252       -3.0358451704
 O       -11.6361296485        0.1990135635       -2.3293156619
 C       -13.6871260003        1.6520255414       -2.5540749898
 C       -13.6769976476        1.7552621261       -0.9537083196
 O       -13.6543592382        2.8395941029       -0.4561572780
 C       -13.6900201064        0.5195032941       -0.1282599099
 C       -13.7049933897        0.8883617217        1.3873789330
 C       -12.3914855791        0.9433894316        2.1049884206
 O       -11.5073580281        0.1555117243        1.8705536792
 C       -12.2556843774        1.7922766012        3.5516744442
 C       -10.9453965614        2.5988987477        3.4217364500
 O       -10.9887901721        3.8225248444        3.4468505785
 C        -9.6480562106        1.8641911858        3.1668990841
 C        -8.5643773111        2.1963028321        4.2643143236
 C        -7.5081711110        3.2030130909        3.8235267428
 O        -7.3273328365        3.4353200373        2.6474623747
 C        -6.7890965235        3.9203675356        4.9249051661
 C        -7.5116827403        5.2659427960        5.4360008363
 O        -8.4869213754        5.6807784621        4.9047379414
 C        -6.9649565282        5.9788499016        6.7757229640
 C        -6.6476353002        2.9933307623        6.2390562657
 C        -5.3533222623        4.1629457878        4.4417309697
 C       -13.4799879137        2.6878809762        3.9152034408
 C       -12.1593263132        0.5864317119        4.5593981056
 C       -13.7269284092        3.1543072119       -3.0997107414
 C       -14.9812268193        0.9408807674       -2.9536168537
 C        -9.4050821822        1.6853703727       -7.5802714589
 C        -8.2339527291        0.0043526875       -5.9820205660
 C        -7.6388952541        6.3942782374       -2.3067756845
 C        -5.8596832268        5.5053837379       -0.6011529604
 C       -12.7984855661        6.0606678686        1.8768753095
 C       -13.2093030180        7.8062671771        0.0569238551
 H       -10.3431496607        9.3109200105       -0.0294027376
 H        -9.9427302518        9.6012313397        1.5588167478
 H       -11.6901179305        9.6953521422        0.9845208056
 H       -11.7668815308        3.9276339463       -0.4006974935
 H       -10.9180432263        4.3965388454        1.0358157177
 H        -9.7753649181        4.4582769349       -1.8301857354
 H        -9.2751810533        3.1614231097       -0.6851992883
 H        -6.1235009391        3.9358062120       -4.1150853255
 H        -7.7526019611        4.6315679601       -4.0137788688
 H        -8.2074241714        1.7908232393       -3.6661003355
 H        -6.5894114263        1.7788064407       -4.1772675152
 H       -10.5127700456       -0.5626180762       -4.4974166588
 H       -11.1078149595       -0.2617659891       -6.1321034851
 H       -13.0556212608       -0.3930242681       -4.9316619094
 H       -12.6810188852        1.2817202317       -5.1636197548
 H       -12.8135214770       -0.1252304217       -0.3302525463
 H       -14.5887883551       -0.0880474920       -0.2659727155
 H       -14.3404460127        0.1283911730        1.8518538840
 H       -14.2673074128        1.8739002418        1.3919478139
 H        -9.2592239581        2.1938974212        2.2328574714
 H        -9.7120758926        0.7777345126        3.1062146144
 H        -8.1100208308        1.2624168434        4.6320796839
 H        -9.1200781754        2.6108422686        5.1357126939
 H        -6.9420375297        5.3443063868        7.5970550160
 H        -7.7134734896        6.7631651339        6.8627320968
 H        -5.9394168294        6.4373889643        6.6909273683
 H        -6.4742420879        1.9431161259        6.1332693254
 H        -7.5833338071        3.0477740028        6.8210706467
 H        -5.8910671551        3.4517250356        6.8549843392
 H        -4.9817294923        3.2862999405        3.9512601678
 H        -4.6517378984        4.2832288099        5.2762545465
 H        -5.2444084089        5.0530047566        3.8510227662
 H       -13.7279672822        3.2080353641        2.9715220323
 H       -13.2983424676        3.4858163594        4.6316466620
 H       -14.3782770636        2.2068847170        4.2459502106
 H       -12.5588226952        0.8355245662        5.5042970111
 H       -11.1576414177        0.1424772529        4.7778179217
 H       -12.7443554998       -0.3275917140        4.1893422798
 H       -12.9715148898        3.7114301575       -2.5668508938
 H       -14.6392258320        3.7140936997       -2.9770561048
 H       -13.5768407942        3.1376490179       -4.1929123646
 H       -15.0020115179       -0.0682495396       -2.6124805257
 H       -15.1343533897        0.8979675188       -4.0473384017
 H       -15.7650316815        1.4982548972       -2.4238094396
 H        -8.5872487764        1.4338562984       -8.3236775979
 H        -9.6044194222        2.7586751747       -7.7179544481
 H       -10.3103465759        1.2405445550       -7.8454320310
 H        -7.7196334871       -0.0800584919       -5.0100380368
 H        -7.5505929690       -0.0923693907       -6.8920734648
 H        -8.9853420751       -0.7442831062       -5.9950996418
 H        -7.6703529946        7.3784249652       -1.8504396081
 H        -8.5617229993        6.2490609750       -2.7898625548
 H        -6.8311324566        6.4961518345       -3.0645843623
 H        -5.0527631088        5.4831939599       -1.3286865863
 H        -5.7474254973        4.7242363425        0.1892455096
 H        -5.7703025802        6.5417337316       -0.2249456926
 H       -12.2668174301        5.8881889937        2.8241433277
 H       -13.1236792609        5.0999282314        1.5102397167
 H       -13.6695461506        6.5148019004        2.1305684788
 H       -12.9137127592        8.4451047498       -0.7923367366
 H       -13.7873711679        8.4583452171        0.7652451057
 H       -14.0087285257        7.1903152145       -0.3188052597
 Na       -9.1583690374        5.1832123604        2.8003426031
