117

 C       -11.2156857920        9.2285555764        1.2406581409
 C       -11.2235357753        7.7527692631        1.3588677897
 O       -10.6165731887        7.0912976657        2.1761957603
 C       -12.1958456565        7.0031417829        0.3446556159
 C       -11.4356420160        6.0224012273       -0.6294566846
 O       -11.1913146755        6.4115264459       -1.7507095796
 C       -10.8801802612        4.5984712828       -0.1075019335
 C        -9.5527517247        4.1296184532       -0.7168304581
 C        -8.4852162522        5.2075349656       -0.6504947893
 O        -8.3574993296        5.8795764406        0.3427972229
 C        -7.4873526764        5.3982828858       -1.8270133995
 C        -7.1866153349        3.9316897887       -2.5613015503
 O        -6.4050715378        3.1895230697       -2.0266814513
 C        -7.7778456345        3.5456007881       -3.9168702158
 C        -8.0586130865        2.0497407842       -4.0682766150
 C        -8.3186190616        1.7937206592       -5.5290358872
 O        -7.9747415664        2.4179006602       -6.5285317256
 C        -9.2184992688        0.4890773888       -5.7585601095
 C       -10.6226672177        0.7117103668       -5.1522842315
 O       -10.9615795761        1.8440602214       -4.7934110942
 C       -11.5849655989       -0.5205768349       -5.0294086233
 C       -12.8653526574       -0.0443387415       -4.3448068376
 C       -12.5403624103        0.3234101435       -2.8599179156
 O       -11.6109745625       -0.2062309696       -2.3371177752
 C       -13.5078168204        1.4127937775       -2.1392445386
 C       -13.1897331331        1.5245607348       -0.6216918869
 O       -13.1633700148        2.6640015571       -0.0672268610
 C       -12.9227195571        0.2474332276        0.2486132008
 C       -13.0858921013        0.5155632747        1.7279952747
 C       -11.8336566789        1.2460597908        2.2546120710
 O       -10.8519092914        1.3202844878        1.5181299699
 C       -11.7521947353        1.9309061531        3.6881156671
 C       -10.2930639813        2.6158603957        3.6726933555
 O       -10.2155781183        3.8282795168        3.7011133927
 C        -8.9366640828        1.8202011950        3.8889420777
 C        -7.9876714740        2.5546271039        4.7941412101
 C        -7.3498176852        3.7278005400        4.0205423793
 O        -7.3309297255        3.7558871274        2.8024771269
 C        -6.7699956586        4.8780769859        4.9569081164
 C        -7.9059864452        5.7389350660        5.5137256904
 O        -8.7415980001        6.1625390306        4.7260116470
 C        -7.9921971953        6.2225988523        6.9599215654
 C        -5.8420405150        4.3956272061        6.0611082841
 C        -5.8929198584        5.7988678932        4.0845699162
 C       -12.8528055146        3.0646811088        3.7556848543
 C       -11.8700496951        0.9144095439        4.8276627240
 C       -13.3650194789        2.7452852690       -2.8583888602
 C       -14.9632055860        0.7088782720       -2.2539327905
 C        -9.3726116473        0.2738554372       -7.2504859561
 C        -8.5679471608       -0.7650687716       -5.0456405594
 C        -8.0154262343        6.4763100461       -2.8425813642
 C        -6.1568739678        5.7928016175       -1.0898846209
 C       -13.1848333765        6.0919467335        1.2196867651
 C       -13.0633871423        7.9163834762       -0.6442703272
 H       -11.1346339386        9.6847893613        0.2164520219
 H       -10.4960034577        9.6216983582        1.9707594191
 H       -12.2630136602        9.5774831703        1.5727622701
 H       -11.6974997085        3.9183086791       -0.4738054580
 H       -10.9019909355        4.6116536287        0.9366837292
 H        -9.6567410388        3.6678931919       -1.6679498189
 H        -9.2135776189        3.2738605970       -0.1348803976
 H        -7.0180523643        3.7354829506       -4.6788655577
 H        -8.6481238569        4.1253563577       -4.0852367169
 H        -8.9339854652        1.5830750443       -3.6202075421
 H        -7.2043601992        1.3901078261       -3.7336021487
 H       -11.2068332779       -1.4631590135       -4.6426177342
 H       -11.9819592762       -0.6911774573       -6.0220814125
 H       -13.6025611970       -0.8559239591       -4.5027540913
 H       -13.3845242923        0.8196214506       -4.6940971096
 H       -11.9706047850       -0.1249026235       -0.1191637585
 H       -13.6373416133       -0.5066283717       -0.1174621869
 H       -13.1937079356       -0.3872129243        2.2997328113
 H       -14.0517059451        0.9611099058        1.8859082209
 H        -8.4699829343        1.6311645363        2.8979387484
 H        -9.1390148135        0.8420882353        4.3530857534
 H        -7.4001345202        1.8916865947        5.3655402567
 H        -8.5427957922        2.9472102749        5.6507089057
 H        -8.2413565048        5.3715822059        7.6980884929
 H        -8.7877785217        6.9832145091        7.1090765657
 H        -7.0439097539        6.5688814049        7.2180539197
 H        -5.1558438698        3.6625695615        5.6047578374
 H        -6.4746778614        3.9187896673        6.7589273062
 H        -5.2820812527        5.2310839170        6.5363563021
 H        -5.1213458806        5.1949442230        3.5761485337
 H        -5.4204569995        6.6281863991        4.6077455529
 H        -6.5823954683        6.1731378594        3.3116561168
 H       -12.6470501851        3.7237166762        2.9304658173
 H       -12.7342123189        3.5642849792        4.7293912277
 H       -13.8196727985        2.5350626593        3.7457877501
 H       -10.8899344743        1.1375295525        5.3971380043
 H       -11.7411504754       -0.0481006190        4.3417607104
 H       -12.7448117888        0.9313099670        5.4312257561
 H       -12.4829203241        3.2896520420       -2.4499200331
 H       -14.2296295924        3.4160991833       -2.7122030599
 H       -13.3143678901        2.5992494501       -3.9236857156
 H       -14.8937488658       -0.3566815744       -1.9305420626
 H       -15.1981620151        0.6640367275       -3.2819893739
 H       -15.7103290928        1.2140174490       -1.6410050880
 H        -8.4463564024        0.0372260792       -7.7039110276
 H        -9.7872264289        1.1220456445       -7.7936550782
 H       -10.0325234739       -0.6630119588       -7.4624200382
 H        -8.6414536908       -0.7335693801       -3.9540024581
 H        -7.5673578803       -0.9310325735       -5.3507278644
 H        -9.1280152339       -1.7406811072       -5.2806275396
 H        -7.9559011907        7.4686462043       -2.4364848022
 H        -9.0643279423        6.2295702015       -3.0786922606
 H        -7.4550350908        6.5457695241       -3.7145383758
 H        -5.3464773584        5.9405414027       -1.8481124601
 H        -6.0029786652        5.0121708614       -0.3812956505
 H        -6.1888574283        6.8032092446       -0.6834244978
 H       -12.6081541562        5.7057638817        2.0116151387
 H       -13.6151035993        5.3279481707        0.6698400866
 H       -13.9267041021        6.8055680980        1.6216454380
 H       -12.3606906679        8.5312003727       -1.2412240378
 H       -13.7696619428        8.4948587537       -0.0639471998
 H       -13.6250497421        7.1836332986       -1.2859500771
 Na       -9.1558351169        5.4325853276        2.5076610772
