117

 C       -11.1987125180        9.2874260901        1.2592303802
 C       -11.2858458649        7.7609170577        1.2874749978
 O       -10.6102149971        7.2343673041        2.1562460346
 C       -12.2033763220        6.9462667652        0.3343295802
 C       -11.3260442817        5.9887004649       -0.6045822091
 O       -11.2098343929        6.2934378953       -1.7855874337
 C       -10.9129366330        4.6119730572       -0.1217978898
 C        -9.5820107554        4.1946919451       -0.6432419684
 C        -8.4746330889        5.2187593509       -0.5749310525
 O        -8.2622552324        5.8870655867        0.4293456722
 C        -7.4235530573        5.4025329711       -1.8050998213
 C        -7.2174258313        4.0223443187       -2.5110355232
 O        -6.5658924258        3.2088758181       -1.9211788856
 C        -7.8215236121        3.7055960227       -3.9594498967
 C        -8.0177634515        2.2057355106       -4.0921024300
 C        -8.3278893848        1.7396632933       -5.5535171438
 O        -7.8840957736        2.4126194409       -6.4378462461
 C        -9.2259707317        0.4339257161       -5.8576671014
 C       -10.6194438484        0.7665664220       -5.1861171214
 O       -10.8976609761        1.8630022987       -4.7367567971
 C       -11.5382701088       -0.4038556235       -5.0133531053
 C       -12.8790743869       -0.0020987575       -4.3674841366
 C       -12.5081334436        0.3470269099       -2.8977128356
 O       -11.6270436593       -0.2243130441       -2.2650088036
 C       -13.4666083517        1.3615164413       -2.1887737068
 C       -13.2002500786        1.5835496711       -0.6734260877
 O       -13.2944182722        2.6800596351       -0.1976333737
 C       -13.0575227018        0.3492666711        0.2396877205
 C       -13.0744633389        0.6587775984        1.6767613287
 C       -11.7239568050        1.2015754237        2.2357775466
 O       -10.7174972623        1.2753320690        1.5813673461
 C       -11.6336703999        1.8667468516        3.6602072737
 C       -10.3234873134        2.6083784708        3.7489924905
 O       -10.3248745212        3.7957609593        3.7143158266
 C        -9.0553459260        1.7640592591        3.9447469461
 C        -8.0248256601        2.6045045995        4.7570728462
 C        -7.3286213233        3.7178022777        4.0013615266
 O        -7.3591672423        3.8400507678        2.7891341201
 C        -6.6426706660        4.7303305808        4.9547914339
 C        -7.9220459417        5.5951726994        5.4297612189
 O        -8.7811495154        5.9545483637        4.6688264068
 C        -7.9402045288        6.1919973555        6.8613954406
 C        -5.9076977983        4.1028892520        6.1493900029
 C        -5.8236829713        5.8258491820        4.1781574341
 C       -12.7224170121        3.0262964955        3.6662994148
 C       -11.9172537508        0.9055598551        4.8660523728
 C       -13.4660563995        2.7587885412       -2.7295361099
 C       -14.8947111382        0.7946690598       -2.3365666919
 C        -9.4611894996        0.2090995674       -7.3454578682
 C        -8.5359989678       -0.7529290553       -5.1667627671
 C        -7.9103906590        6.5299942821       -2.7506169315
 C        -6.1003430813        5.8136133557       -1.1795584261
 C       -13.2072845303        6.1552753853        1.2624101742
 C       -12.9966110236        7.8700849590       -0.6061483704
 H       -10.6727048989        9.5519426329        0.3277555725
 H       -10.5833242220        9.5730723957        2.1423017027
 H       -12.0356839152        9.8597732781        1.2177044968
 H       -11.7035495701        3.9514591672       -0.5123594358
 H       -10.9841447241        4.6765447034        0.9508074891
 H        -9.6415595643        3.8583871559       -1.6745564715
 H        -9.3232350775        3.2818612483       -0.1463703911
 H        -7.1436318693        4.0129536764       -4.7028608440
 H        -8.8175079013        4.2061600207       -4.0244075619
 H        -8.8554044132        1.7662732174       -3.4439168064
 H        -7.0975458473        1.6590613369       -3.8032781574
 H       -11.0250258731       -1.1271179120       -4.3547666229
 H       -11.7289293075       -0.8883762234       -6.0223591754
 H       -13.5904865009       -0.7796925165       -4.3174616361
 H       -13.4579521356        0.8251510599       -4.7379147202
 H       -12.0903005112       -0.1156278975       -0.0490325833
 H       -13.7865176401       -0.3875922218       -0.0930806580
 H       -13.3743431653       -0.2000600718        2.2404540406
 H       -13.9391067596        1.3581821455        1.8566191396
 H        -8.6759795829        1.5553208837        2.9693467995
 H        -9.2885702328        0.7945625963        4.3974739245
 H        -7.2194064481        1.9989228849        5.1780804906
 H        -8.4446666677        2.9357278577        5.6800399752
 H        -8.2168926601        5.3280962527        7.4572745935
 H        -8.7118456942        6.8978073074        7.0405737012
 H        -6.9349793906        6.5094971623        7.2131477794
 H        -5.1093436387        3.5400234121        5.6643962422
 H        -6.5610331713        3.3773487636        6.6220946842
 H        -5.5387740172        4.8327613615        6.8756127837
 H        -5.0715991334        5.4609357327        3.4538696397
 H        -5.2848242683        6.5197414742        4.8921202157
 H        -6.5898369710        6.3733441540        3.6437506439
 H       -12.3632214372        3.7301796132        2.9536309756
 H       -12.7289089097        3.3814319169        4.6481049400
 H       -13.7484314438        2.6175596910        3.4710177382
 H       -11.3373553234        1.2283280576        5.7271836295
 H       -11.6520340496       -0.1162824959        4.5274588377
 H       -13.0369692624        0.9196752241        5.0401036480
 H       -12.5531762367        3.2938519533       -2.5081822607
 H       -14.3316566255        3.2932634146       -2.1823733981
 H       -13.7148057151        2.8458631085       -3.7973831362
 H       -14.9218354417       -0.2079589620       -1.9734612465
 H       -15.1214543844        0.6998990529       -3.3899680238
 H       -15.5962979797        1.4232269599       -1.7598985790
 H        -8.5275056364       -0.0253185545       -7.9403243833
 H        -9.9553721654        1.0677480902       -7.7857243603
 H       -10.0769729198       -0.6934979217       -7.5451460180
 H        -8.1423796556       -0.4070729402       -4.1589522138
 H        -7.7161963067       -1.0361902594       -5.7798087800
 H        -9.1012762997       -1.6539667756       -4.8662827627
 H        -7.9178556680        7.4698746671       -2.2154943669
 H        -8.8938493795        6.3284230903       -3.1243044896
 H        -7.2352100972        6.7322742880       -3.5802224736
 H        -5.3358792885        5.9987654730       -1.8781113867
 H        -5.9543744144        4.9547213665       -0.4733219415
 H        -6.1669645867        6.7349317372       -0.6717277900
 H       -12.7802698640        6.0261275590        2.1980673466
 H       -13.4045190592        5.1886478803        0.7749167704
 H       -14.1302103145        6.7343531897        1.2968142688
 H       -12.1874020101        8.3994109559       -1.1659528010
 H       -13.5853127669        8.5845566927        0.0111397214
 H       -13.6544120804        7.2528420264       -1.2574613755
 Na       -9.3170968573        5.3136188358        2.5054916886
