117

 C        -8.3817034974       -4.9447090472        3.3658650599
 C        -6.9868445867       -4.9664594255        3.9504856660
 O        -6.0619957078       -5.0030572097        3.1453617194
 C        -6.6249652970       -4.7129831204        5.5056078342
 C        -6.4569188193       -3.2156301639        5.8841809614
 O        -5.5402958318       -2.7934941010        6.6230145231
 C        -7.5864856108       -2.3977877308        5.2960756271
 C        -7.9475367075       -0.9756496116        5.8923529308
 C        -8.1722840350        0.1140207222        4.8273368705
 O        -8.9842414607       -0.1034173048        3.9143914174
 C        -7.6657940512        1.5232180209        5.2067635773
 C        -7.5443528663        2.5209953523        3.9618445026
 O        -6.4329106530        2.8976488029        3.6685706642
 C        -8.7306725550        2.7126395518        2.8821919100
 C        -8.1390106296        2.6477676732        1.4438411571
 C        -9.2796489410        3.2104549316        0.5550186655
 O        -9.2461197651        4.3870838128        0.2969679110
 C       -10.4229827668        2.2325004543        0.1476289251
 C       -11.8559827242        2.7289164088        0.7581714595
 O       -11.8451418949        3.2005316289        1.8687210226
 C       -13.1683309254        2.6428820999       -0.0371344832
 C       -13.9994793607        3.9552801498        0.0506565798
 C       -13.6297707388        5.3579601910       -0.6084432723
 O       -12.6714073376        5.9627803851       -0.1709373844
 C       -14.3106667998        5.8957346239       -1.9102234457
 C       -13.3721183641        5.6597458176       -3.1273149978
 O       -12.2253606007        5.2746447874       -2.9973840160
 C       -13.9471881545        6.0249118503       -4.5222876911
 C       -12.8472445154        6.5484600183       -5.5253278263
 C       -12.6229487648        8.0356124589       -5.1865238836
 O       -13.0642021523        8.6268315681       -4.2514935859
 C       -11.7284290617        8.9898921499       -6.1563106020
 C       -10.2646989462        8.9017005654       -5.6851610463
 O        -9.4724141990        8.1106824051       -6.2018525768
 C       -10.1165581732        9.7626437293       -4.4218671215
 C        -8.8528086065        9.4211053131       -3.6304657791
 C        -9.0658142583        8.2558765017       -2.6652947892
 O       -10.0850585093        7.8489249875       -2.1646806780
 C        -7.5579356759        7.5372670785       -2.2243499929
 C        -7.6738097489        6.3101043744       -3.0241304160
 O        -8.7548631968        5.6882676218       -3.0803420015
 C        -6.5080191402        5.5978510224       -3.6520502172
 C        -6.4247646104        8.5592704250       -2.4107598578
 C        -7.6477630712        7.0857025889       -0.7485938530
 C       -11.6751780285        8.5142493654       -7.7353465632
 C       -12.2079177874       10.4506270853       -6.0083706473
 C       -15.6568795560        5.1213836071       -2.0722502528
 C       -14.4485446422        7.4045976719       -1.7125052799
 C       -10.4228627395        2.3217037943       -1.3962459361
 C       -10.1524822171        0.7537590086        0.6067229980
 C        -8.6296789777        2.1228831901        6.2931160210
 C        -6.2334513418        1.5132312940        5.7868110575
 C        -7.8847955875       -5.2324566076        6.2575138854
 C        -5.3547933980       -5.5032809539        5.8165326915
 H        -8.8368599221       -5.9651018094        3.4275535894
 H        -8.3741438105       -4.6104860120        2.3235666121
 H        -9.0634273153       -4.2945638777        3.8985520980
 H        -8.4964151988       -3.0470652898        5.1635464312
 H        -7.2554110662       -2.2143939472        4.2217584657
 H        -7.1876020382       -0.6667993023        6.6031008677
 H        -9.0884797401       -1.0368627662        6.2341807461
 H        -9.1824112141        3.6906546622        3.0315345296
 H        -9.5641554669        1.9511877667        3.0935848055
 H        -7.6819942895        1.6953092732        1.2222412881
 H        -7.3682913772        3.3966834365        1.4380222402
 H       -13.7507612126        2.0615206676        0.6375703700
 H       -12.9242031508        2.3282261557       -1.0500207865
 H       -13.9448327222        4.3383479254        1.0456221707
 H       -15.0503576043        3.6418852266       -0.2492101729
 H       -14.5977940676        6.8478453637       -4.2261935711
 H       -14.4932567489        5.2230631699       -4.9723911479
 H       -13.2386457640        6.3559066903       -6.6036415305
 H       -11.9717831163        5.9122560640       -5.3726741413
 H       -10.9400725878        9.7609082326       -3.7698612082
 H        -9.8916723101       10.8290877629       -4.7826069068
 H        -8.5208236954       10.2829414877       -3.0535165476
 H        -8.0282525462        9.1377283621       -4.3591677759
 H        -5.7749443768        6.2219302742       -3.9830331482
 H        -6.7391570913        4.7619345639       -4.3171131942
 H        -6.1336147486        5.0988650225       -2.6994611798
 H        -6.4101229268        9.3774917767       -1.6847813061
 H        -6.4907661770        8.9241308910       -3.4473009596
 H        -5.5272287496        7.9774065697       -2.3881869600
 H        -8.5191876072        7.5602980709       -0.2807468301
 H        -6.6596069163        7.3321571481       -0.1218618529
 H        -7.8543540518        6.0742868441       -0.6364554476
 H       -10.6867311742        8.0637945019       -8.0605068309
 H       -11.7338933035        9.4369466622       -8.3905303119
 H       -12.4316620892        7.8385942877       -8.0957396190
 H       -11.2770237262       11.0278358551       -6.3964690232
 H       -12.4872676413       10.6201292560       -4.9904756599
 H       -13.0536746436       10.6132519368       -6.6503434334
 H       -16.3361989523        5.1549802669       -1.2358016625
 H       -15.5273143771        4.0980507029       -2.4308062308
 H       -16.1891406964        5.5681209944       -2.8749854981
 H       -14.9053243600        7.6366331250       -0.6987652328
 H       -15.1493170833        7.8699741362       -2.5007470795
 H       -13.4981581062        7.9545774034       -1.8934560927
 H       -11.2547808351        1.7148447876       -1.7926882312
 H        -9.5069097536        1.9262838591       -1.8208526764
 H       -10.6129360234        3.2942261251       -1.7520544514
 H       -10.1555718751        0.5987153869        1.6867758315
 H        -9.2221513590        0.4326325080        0.2241722601
 H       -10.9050444930        0.1061494716        0.0304904053
 H        -8.2664518719        2.0335784444        7.3151030084
 H        -9.6003423455        1.6874987425        6.1906873039
 H        -8.8597876153        3.2215796200        6.1136265566
 H        -6.0898769890        0.8505566993        6.7143875297
 H        -5.9699480845        2.5255318891        6.0849930310
 H        -5.4472573492        1.0675848163        5.0951861824
 H        -8.7791398392       -4.8157400350        5.8999872327
 H        -7.7778826417       -5.1603844987        7.3479006210
 H        -7.7723580342       -6.2484636492        6.0846705283
 H        -4.6685527015       -5.4013481716        4.9617982312
 H        -5.5217115654       -6.6001023366        5.8453231034
 H        -4.8070266225       -4.9906256382        6.6389183112
 Na      -10.4162216519        5.7188295855       -1.3147412467
