117

 C       -11.5129647319        9.1566885058        1.0556869130
 C       -11.7267296850        7.6726804713        1.4133691292
 O       -11.3218715367        7.1343761935        2.4290178291
 C       -12.4632365576        6.8181808409        0.3482316576
 C       -11.3376370326        6.2322598313       -0.6295743771
 O       -10.9727999267        6.9155951941       -1.5812780081
 C       -10.8674458507        4.8313368098       -0.3535984636
 C        -9.6212610404        4.3657214498       -1.0437044942
 C        -8.4177753806        5.2489446292       -0.8904659910
 O        -8.2086313476        5.8413391030        0.1666347662
 C        -7.4400804445        5.3119060644       -2.1507026509
 C        -7.1848319268        3.8061418653       -2.6343674692
 O        -6.4988557669        3.0277805832       -2.0386564655
 C        -7.8604293149        3.3683648923       -3.9975365509
 C        -8.1276411155        1.8436345230       -4.0283297195
 C        -8.5112033025        1.3743956779       -5.4509803731
 O        -8.2742691454        2.0827299453       -6.4168492977
 C        -9.2464032127        0.0511811662       -5.5524623306
 C       -10.7472734217        0.2889732143       -5.0139971118
 O       -11.0649104320        1.4091212152       -4.6941852793
 C       -11.8382368256       -0.8487421261       -4.8679245613
 C       -13.1808915877       -0.4753795926       -4.1259038282
 C       -12.6486945030        0.1535977538       -2.7862269125
 O       -11.5415463411       -0.1385795451       -2.3390857271
 C       -13.7004664837        1.0305952658       -1.8843295153
 C       -13.1964084357        1.1578723912       -0.3958564045
 O       -13.3305783012        2.1610050624        0.1903909947
 C       -12.5013775567       -0.0809937556        0.3159637370
 C       -12.3541126926        0.2869555505        1.7591202576
 C       -11.3469467092        1.2501522001        2.1916978763
 O       -10.4762514439        1.5795455818        1.4393950312
 C       -11.5302800315        1.9836681596        3.6934083108
 C       -10.2851983716        2.8980715296        3.7073282183
 O       -10.4317590749        4.0258115358        3.2842826077
 C        -8.8483876748        2.3611915989        3.9946509346
 C        -8.1612331600        3.1962305013        5.0387671660
 C        -7.1460828535        4.1416558247        4.2904886979
 O        -7.0923138777        4.0592975102        3.0833972731
 C        -6.6037382306        5.4498368856        4.9489713743
 C        -7.7737333242        6.4670746764        5.2489161375
 O        -8.4790714587        6.8253367958        4.3513491308
 C        -7.9171863863        6.9855182428        6.6733063581
 C        -5.5751572076        5.1226645795        6.1198757208
 C        -5.6617480107        6.1894059811        3.9043355142
 C       -12.9565553703        2.6998600008        3.5331170217
 C       -11.5038533373        0.8624575219        4.7565758894
 C       -13.6451461040        2.5454847446       -2.4578844894
 C       -15.1259383926        0.5202082213       -1.8443350270
 C        -9.2583263665       -0.4946329852       -7.0269765230
 C        -8.5780464997       -0.9839061219       -4.6357366657
 C        -8.0846098556        6.2491957053       -3.2139539803
 C        -6.0077239176        5.7397445715       -1.6547315096
 C       -13.3329567252        5.7414639239        1.0191624158
 C       -13.3187211617        7.7289713800       -0.6208578018
 H       -11.0506143731        9.3983854439        0.0862808700
 H       -10.9465506484        9.8104275793        1.7410472187
 H       -12.4920423094        9.4865084141        1.0604048842
 H       -11.7324292752        4.2586648163       -0.6311902155
 H       -10.8359564287        4.7084660458        0.7689978255
 H        -9.8448153112        4.2793360776       -2.0852256686
 H        -9.4932476290        3.3768593189       -0.6266871588
 H        -7.1469896280        3.6374282493       -4.7683711111
 H        -8.6782358104        3.9388617686       -4.3676218639
 H        -8.9927211071        1.5532342406       -3.3693436055
 H        -7.2279272621        1.2058977472       -3.7884436126
 H       -11.2913992786       -1.6556767213       -4.3385462914
 H       -12.0315175602       -1.4097302818       -5.8009270303
 H       -13.7681398385       -1.3540254716       -3.9662317939
 H       -13.7485818702        0.3419232126       -4.5788432499
 H       -11.5180987264       -0.1314203341       -0.1441679957
 H       -13.1054795269       -0.9810448751        0.1333953783
 H       -12.0989064063       -0.6713884981        2.2792646518
 H       -13.2648315079        0.5972940855        2.2233808411
 H        -8.2678382587        2.5521076104        3.0898544238
 H        -8.9101603779        1.3630476270        4.3427229175
 H        -7.6269978862        2.4896161235        5.6161526973
 H        -8.7469691678        3.8744750129        5.6357869397
 H        -8.2796725404        6.2749091748        7.3363094602
 H        -8.4587727572        7.8951988562        6.7006918055
 H        -6.9064768230        7.3602522921        7.0595287096
 H        -4.7510864291        4.5571241594        5.7316923979
 H        -6.0127099413        4.5009468012        6.9627150556
 H        -5.2718066236        6.0672733542        6.5560378192
 H        -4.7053515257        5.6692951109        3.7714480946
 H        -5.4828349329        7.2178981676        4.3166528031
 H        -6.1368641358        6.2940901429        2.9324906600
 H       -13.0002607567        2.7967720684        2.4619224684
 H       -13.0387546084        3.6502587501        4.0169477581
 H       -13.7669557575        2.0167774152        3.7984334270
 H       -11.1785177925        1.2732772924        5.6740838226
 H       -10.7837695101        0.0245549857        4.5257191314
 H       -12.5647000215        0.4828761928        4.9920176035
 H       -12.6645571469        3.0150041506       -2.5077933036
 H       -14.3878421096        3.1438321431       -1.9142100645
 H       -13.9797821699        2.4803195169       -3.5428957751
 H       -15.1738149246       -0.4125860469       -1.2737701746
 H       -15.5576244999        0.3345820584       -2.8692415068
 H       -15.7135490663        1.2995075135       -1.3701448111
 H        -8.1665889843       -0.6570791149       -7.4046483091
 H        -9.8426545786        0.1668143805       -7.7053403838
 H        -9.6827523847       -1.4749759109       -7.0782820746
 H        -8.8940269119       -1.0009792775       -3.5554987548
 H        -7.4487346845       -0.9284864818       -4.5984568295
 H        -8.8116843619       -1.9615224157       -5.0171313795
 H        -8.2051907497        7.2267900525       -2.7498963801
 H        -9.0737694836        5.9548483307       -3.4897549175
 H        -7.4403735587        6.2559900008       -4.1412734827
 H        -5.4090647689        5.6454749009       -2.4959511697
 H        -5.5955271088        5.0106790633       -0.9168880630
 H        -6.0233216300        6.6381248085       -1.0944609455
 H       -12.7419949998        4.9361615916        1.4255082218
 H       -14.1253325136        5.3829834877        0.3014390100
 H       -13.8710875088        6.1691135779        1.8216004756
 H       -12.6121823655        8.3184559522       -1.2093171568
 H       -14.0363886729        8.2942529519        0.0240839010
 H       -13.8687603099        7.0244895617       -1.2036792401
 Na       -9.1164504284        5.7732091305        2.4556562355
