117

 C       -12.5536744993        9.6146215769        0.7990092990
 C       -11.9665183394        8.1679019574        0.9024857369
 O       -10.8622990677        7.9494778100        1.3877771972
 C       -12.6954429217        6.9889869863        0.2654280628
 C       -11.6460073037        6.1043651834       -0.4810050508
 O       -11.1811954285        6.4768716371       -1.5554511613
 C       -11.0927175110        4.8276698857        0.1373083770
 C        -9.9023531872        4.2524378076       -0.6397016495
 C        -8.5808542327        5.0814297051       -0.7728190014
 O        -8.2345121777        5.8559182060        0.0983870257
 C        -7.6629178409        5.0370416071       -2.1025745463
 C        -7.3502496367        3.6077310598       -2.5316770177
 O        -6.8001644032        2.8987579531       -1.6982323464
 C        -7.7602026824        2.9953804116       -3.8940986936
 C        -8.2103190807        1.5161921046       -3.8134406585
 C        -8.4897382940        0.9959917492       -5.2560242963
 O        -8.1348206315        1.6123901694       -6.2569427151
 C        -9.4033047828       -0.2995957040       -5.4964926974
 C       -10.8398244977        0.1927239048       -5.2323325341
 O       -11.0413157330        1.3878514048       -5.0574036381
 C       -11.9492776331       -0.8382475099       -4.8771956116
 C       -12.9974037770       -0.0905673773       -3.8991362568
 C       -12.5850804671       -0.1905955047       -2.4616708874
 O       -11.5746476242       -0.8054290356       -2.1616140564
 C       -13.4966249910        0.4528067143       -1.4434167971
 C       -12.7351837106        0.7421823768       -0.1633177310
 O       -12.7981935475        1.8792095164        0.3639681095
 C       -12.1218617781       -0.4716705577        0.5787204645
 C       -12.0632608639       -0.2701934932        2.0849522992
 C       -11.0436748401        0.9440644578        2.4011867627
 O        -9.9899607478        0.8594067971        1.8536897965
 C       -11.3446726042        1.9193441101        3.6877751621
 C       -10.2600198047        3.1429784451        3.4593688686
 O       -10.7194296158        4.2510299579        3.3213085500
 C        -8.8174558255        2.9376046161        3.5963017369
 C        -8.2228617222        3.9440772467        4.5821531814
 C        -7.2618503025        4.9742019395        3.9139813453
 O        -7.2269629409        4.9332930833        2.7289751098
 C        -6.4705305732        6.0780820210        4.8018099558
 C        -7.2677644646        7.4904010338        4.5286572138
 O        -8.2375677500        7.4582955055        3.8156268762
 C        -6.7877498299        8.6667187414        5.2901088466
 C        -6.5975781022        5.8537468643        6.2940349562
 C        -4.9500614002        5.9286089940        4.4147693598
 C       -12.7194133738        2.5546492138        3.5703245857
 C       -10.9283380114        1.1770987604        4.9490647995
 C       -14.1291835348        1.7585069623       -1.9626167859
 C       -14.6167691626       -0.6114959458       -1.1910301710
 C        -9.3839369760       -0.6753483837       -6.9539663108
 C        -8.9095247601       -1.5128835202       -4.6909292337
 C        -8.4429804468        5.7651482913       -3.2000917831
 C        -6.3529259931        5.7236841778       -1.8738749073
 C       -13.3555801005        6.3561206120        1.5132729221
 C       -13.7250485735        7.4157349164       -0.7946161599
 H       -12.8163715717        9.9163810190       -0.2005902521
 H       -11.9515020355       10.3637832886        1.3816396012
 H       -13.6320086695        9.5889593803        1.2715248332
 H       -11.8799034379        4.1149818336        0.0423072510
 H       -10.8539175414        4.8230398744        1.2329145218
 H       -10.3346007788        4.0127934501       -1.6631529253
 H        -9.5695685042        3.2672701261       -0.2999667170
 H        -6.8869419254        2.9338229967       -4.5224672156
 H        -8.6314038082        3.5738202639       -4.3098132548
 H        -9.1437192051        1.3667436545       -3.2450933945
 H        -7.5154162584        0.8925798908       -3.3735643683
 H       -11.5641333823       -1.7916019191       -4.4932209223
 H       -12.4978639817       -0.8972007060       -5.8151879290
 H       -13.9540458738       -0.5394256709       -4.1484686371
 H       -13.0465962785        0.9659934630       -4.3614848221
 H       -11.1252533517       -0.6393282668        0.1779350974
 H       -12.8016204414       -1.2993287946        0.2950701817
 H       -11.6583301821       -1.2009696275        2.5205809858
 H       -13.0215651281       -0.0758675557        2.5695219321
 H        -8.3051747481        2.9495489447        2.6100014361
 H        -8.6112768232        1.8738172979        3.8570330977
 H        -7.7742310414        3.4807586480        5.5367386133
 H        -9.0748191801        4.5632840998        5.0363075851
 H        -5.6932601680        8.5967851971        5.6494697027
 H        -7.3326127026        9.0593633692        6.1978176755
 H        -6.7933951638        9.5124850160        4.6589479067
 H        -5.9204594040        5.0092741725        6.5304249270
 H        -7.5306070831        5.5344761711        6.7126348955
 H        -6.2299172379        6.6950583634        6.9351802043
 H        -4.6458337632        4.8866035483        4.6290942632
 H        -4.3199258250        6.5994775368        5.0459641979
 H        -4.7668821314        6.2444199938        3.3830605028
 H       -12.9582485535        3.1342166577        2.6748591854
 H       -12.8117296102        3.2779216497        4.3531963145
 H       -13.5666606841        1.8368416624        3.6914746935
 H       -10.4119616175        1.7121439818        5.8366980747
 H       -10.2046704378        0.4369675565        4.6906914794
 H       -11.6764904908        0.6406772833        5.4864314085
 H       -13.4420783947        2.5852193189       -2.0556089747
 H       -14.8378033276        2.0977021712       -1.1388581213
 H       -14.7925179024        1.5624245285       -2.7613821453
 H       -14.1598894201       -1.5850019128       -1.2102512559
 H       -15.4316227614       -0.6382970961       -1.9296863283
 H       -15.1626089398       -0.5382675665       -0.2210176100
 H        -8.4251641974       -0.9967263866       -7.1652064288
 H        -9.6490794389        0.1171686813       -7.6437846746
 H       -10.2222083973       -1.4293310376       -7.0394186318
 H        -8.5547433621       -1.2861323997       -3.6680790180
 H        -8.0775977673       -1.8369013087       -5.2458269784
 H        -9.6733653813       -2.3214235759       -4.7414965059
 H        -8.8124892896        6.6920868280       -2.7860552509
 H        -9.3220787559        5.2975256880       -3.6239816668
 H        -7.7369883133        5.9325580482       -4.0001972252
 H        -5.6161455138        5.5740629687       -2.7074084576
 H        -5.8345627676        5.2080935505       -1.0686018281
 H        -6.4440586769        6.8033141883       -1.6682888736
 H       -12.7367615205        6.0545800365        2.3304455041
 H       -13.9346920309        5.5177780752        1.3238767642
 H       -14.0921399855        7.0443518861        1.9964036307
 H       -13.1342753857        7.8421185756       -1.6491053966
 H       -14.4992751422        8.0447397496       -0.3467057178
 H       -14.2247693418        6.4898400526       -1.1912574514
 Na       -9.2847101124        5.8877974271        2.2593795463
