117

 C       -12.3516708647        9.3738099617        1.0442020977
 C       -11.7327456078        7.9960306835        1.0749632980
 O       -10.6891551664        7.7573159716        1.7068953382
 C       -12.4993185637        6.8853796301        0.2990021322
 C       -11.4608958919        6.1288895639       -0.6489509165
 O       -11.1430205844        6.5277692863       -1.7736434236
 C       -11.0309668786        4.7762230087       -0.1355990657
 C        -9.8385040515        4.1367563105       -0.8682704868
 C        -8.5703129517        5.0392186292       -0.7825331435
 O        -8.2867080578        5.7510766899        0.1500134343
 C        -7.7198059225        5.1095747360       -2.0375265155
 C        -7.4886845261        3.6340423858       -2.5379749707
 O        -7.0152452376        2.8566272101       -1.7057852801
 C        -7.8990182503        3.1871913570       -3.9906638238
 C        -8.1681037480        1.7156982034       -4.0027383298
 C        -8.4535335273        1.1485286238       -5.3937427804
 O        -7.9575723672        1.7056429111       -6.3653704244
 C        -9.4118302705       -0.1278420906       -5.5315402282
 C       -10.8619037744        0.3565251062       -5.1852666056
 O       -11.1908283252        1.5188676471       -4.9995669070
 C       -11.9188555860       -0.7974652752       -5.0275944388
 C       -13.1567990640       -0.3728397329       -4.2247934661
 C       -12.6176311454       -0.1673913150       -2.6190598900
 O       -11.4991467847       -0.4743973541       -2.2233283967
 C       -13.6042020474        0.5309478765       -1.6417747289
 C       -12.8926325129        0.7498049135       -0.2003370681
 O       -12.7282510053        1.8983904703        0.1992468889
 C       -12.4403835792       -0.4437022004        0.6863268767
 C       -12.1454479756        0.0072728652        2.1350496957
 C       -10.9869474032        1.0121070748        2.4066929592
 O       -10.0198137138        1.0669893986        1.7730717892
 C       -11.3465523968        2.0195109667        3.7812067180
 C       -10.2692372005        3.0986238108        3.6439501565
 O       -10.5483495369        4.2274594981        3.2716647751
 C        -8.7756195943        2.7537211388        3.7163805847
 C        -8.0392345313        3.5319047754        4.8179609854
 C        -7.1761589342        4.6421340194        4.0666569468
 O        -7.0659132600        4.5967219498        2.8781465588
 C        -6.5538846697        5.9103264942        4.8738777155
 C        -7.4338312093        7.1619847926        4.7403857231
 O        -8.4208134138        7.1469623899        4.0716122692
 C        -6.9857383135        8.4883233843        5.4433814394
 C        -6.3855392537        5.5772915218        6.3548512175
 C        -5.2130724235        6.3553020092        4.1846832498
 C       -12.7482135352        2.6183314042        3.6800173004
 C       -11.2040584664        1.1047116444        5.0376826885
 C       -14.0475284573        1.9127778191       -2.0806159290
 C       -14.9389956751       -0.3782880703       -1.4651929618
 C        -9.2679667717       -0.8104329286       -6.8943095909
 C        -8.8495320811       -1.1765380091       -4.4711232156
 C        -8.4367794779        5.9433451099       -3.0881565426
 C        -6.3154637357        5.7428464220       -1.6179098120
 C       -13.2406866027        5.9843160666        1.2530794246
 C       -13.4938891818        7.5442581903       -0.7828987504
 H       -12.3521891351        9.7215297877        0.0893258179
 H       -11.7445764014        9.9995284404        1.6602463766
 H       -13.3431644874        9.5078263628        1.4313585844
 H       -11.8759534222        4.0778748684       -0.3637663835
 H       -10.9554783909        4.7417211668        0.9741387986
 H       -10.1811762805        3.9333619310       -1.9109929353
 H        -9.7031715736        3.1883060268       -0.3764171239
 H        -6.9843274366        3.3039034519       -4.5105202349
 H        -8.7575960467        3.7802492451       -4.3409681172
 H        -9.0675540347        1.4928388845       -3.3305826239
 H        -7.2995765530        1.2084219981       -3.5104333670
 H       -11.4593615221       -1.6728222957       -4.5173802377
 H       -12.2049740755       -1.0458124274       -6.0995193926
 H       -13.8186180982       -1.2010174459       -4.2409172770
 H       -13.6029033108        0.5071792615       -4.6951153085
 H       -11.5715709337       -0.8212412146        0.1143318954
 H       -13.3169675950       -1.0905852245        0.6599279704
 H       -11.8325589856       -0.8307300924        2.7354141613
 H       -13.0871305488        0.4579802223        2.5647911620
 H        -8.3234086951        2.8665039572        2.7641424934
 H        -8.5909740436        1.6974400818        3.9429084935
 H        -7.4344641742        2.8071610033        5.3909088075
 H        -8.7565267866        3.9953398035        5.4441545166
 H        -6.1197112265        8.3380266226        6.1258445424
 H        -7.6774619288        9.0086631125        6.0819886978
 H        -6.7044034550        9.2194202643        4.7632403445
 H        -5.9032489673        4.6445902815        6.6795917989
 H        -7.3303930754        5.6347536876        6.8224555528
 H        -5.7044887515        6.2903494107        6.8434466373
 H        -4.4097370968        5.6416697913        4.2291361845
 H        -4.8992657872        7.2967223911        4.5373292300
 H        -5.4997577183        6.5609799170        3.1529952214
 H       -13.0657668629        2.6171734577        2.6244764380
 H       -12.8833115068        3.6712660063        4.0124736930
 H       -13.4363151212        2.0344359166        4.2611842966
 H       -11.4631151251        1.6261200011        5.9869478594
 H       -10.1993589075        0.8172829716        5.2022885821
 H       -11.7417600863        0.2211850851        5.0833517974
 H       -13.1540465240        2.5519742543       -2.2321594285
 H       -14.6404027117        2.4153900773       -1.3216355744
 H       -14.6441542373        1.8295297202       -2.9546714660
 H       -14.7909752249       -1.2837535272       -0.8874542693
 H       -15.4417111465       -0.6266521357       -2.3662374269
 H       -15.6845449662        0.2024586151       -0.9041810375
 H        -8.2985040691       -1.1619117054       -6.9819143697
 H        -9.3391319987       -0.0609351862       -7.6863182159
 H       -10.0681796882       -1.6064977920       -6.9996384433
 H        -9.2425000044       -0.9728387585       -3.5093846398
 H        -7.7773857765       -1.0892978701       -4.4203532958
 H        -9.1363826406       -2.2257155417       -4.7524866675
 H        -8.4017758009        7.0245785728       -2.9037707606
 H        -9.5107634831        5.6102006916       -3.1063352713
 H        -8.0079106448        5.7289953530       -4.0407893964
 H        -5.8054100407        6.0967463498       -2.5408293885
 H        -5.7005116672        5.0430460873       -1.1681114077
 H        -6.4187737457        6.7055195379       -1.1344253890
 H       -12.6461969760        5.5174665768        2.1100010194
 H       -13.6556232125        5.1099440918        0.8098727615
 H       -14.0791151295        6.5086841279        1.7893992606
 H       -12.8750036081        8.0756041497       -1.4832894317
 H       -14.2037729568        8.1358789184       -0.3066054320
 H       -13.9576887320        6.6977068994       -1.2959317311
 Na       -9.2823505312        6.1554110756        2.1901002620
