117

 C       -11.8755283070        9.1508209479       -0.2378155755
 C       -11.8202959873        8.0306790947        0.7514325506
 O       -11.0636559269        7.9742862519        1.7294311377
 C       -12.9077107556        6.9650709780        0.4584115288
 C       -11.9923789290        6.0307201653       -0.5457739721
 O       -11.6453891871        6.5636157276       -1.5899047697
 C       -11.5835667632        4.6166222712       -0.2329356101
 C       -10.4091157094        4.1147649601       -1.0679466955
 C        -9.1794592757        5.0119941316       -1.0367081208
 O        -8.9578538503        5.7530575196       -0.0817296264
 C        -8.0725317681        4.8851206733       -2.1482756690
 C        -7.7731216993        3.3687143093       -2.4949765492
 O        -7.4806645654        2.5928659737       -1.5985430021
 C        -7.9332091947        2.7496673122       -3.9010588692
 C        -7.8448999867        1.2522845685       -3.8934115752
 C        -8.2583974708        0.6483266390       -5.2728280426
 O        -7.4494830111        0.7402766819       -6.1980514833
 C        -9.4327460138       -0.3367246848       -5.4671846740
 C       -10.6818716983        0.1434829869       -4.7097098487
 O       -10.5982880772        1.1190758046       -3.9901507889
 C       -12.0544153908       -0.5487767778       -4.8219516908
 C       -13.0464664197       -0.0060647104       -3.7161480302
 C       -12.4781941140       -0.4283481791       -2.3188835989
 O       -11.4652288143       -1.0514223771       -2.1239381498
 C       -13.4296791406       -0.0792885284       -1.0460894288
 C       -12.5713509043        0.3706236621        0.1691826023
 O       -12.5202464867        1.5710275963        0.5047360364
 C       -11.6865274525       -0.6043684421        0.9589353295
 C       -11.5280579936       -0.1014527768        2.4340977299
 C       -10.7718803690        1.2610998904        2.2992970434
 O        -9.8128038354        1.4132599295        1.5769413459
 C       -11.1375616536        2.2420820061        3.5035332683
 C        -9.9755011939        3.3776146044        3.5421597644
 O       -10.3484713895        4.4957956017        3.3231204034
 C        -8.4212459959        3.0197125831        3.7069553475
 C        -7.5362560773        4.0492769225        4.6180657757
 C        -7.1645190167        5.2861338146        3.8350552749
 O        -7.3233839405        5.3565540012        2.6603875554
 C        -6.6173708292        6.5638211448        4.6372743187
 C        -7.0884321942        7.8498248039        3.8388715759
 O        -8.1710810092        7.8276823239        3.3077368774
 C        -6.3221305849        9.0699580117        3.9637584354
 C        -7.2291428727        6.7913726768        5.9985765552
 C        -5.0370395714        6.5050341746        4.7076026552
 C       -12.4672246406        2.9421101378        3.2583590741
 C       -11.0747606446        1.5252628815        4.8393160515
 C       -14.4223283469        1.0441585400       -1.3828004795
 C       -14.2372584131       -1.3030318900       -0.6317108516
 C        -9.8154562183       -0.6249761766       -6.9509277903
 C        -8.9886181584       -1.6909720301       -4.6948490772
 C        -8.5424711476        5.6668456409       -3.3975419773
 C        -6.7368428237        5.4264740088       -1.4999308108
 C       -13.2380551710        6.1365396784        1.7639044041
 C       -14.1971362163        7.4093835694       -0.2672870228
 H       -11.7244581719        8.6765292558       -1.2047228995
 H       -11.0347840906        9.9152615599       -0.1959045743
 H       -12.8693053263        9.7422957709       -0.2424308993
 H       -12.3940686813        3.8947228733       -0.2362073351
 H       -11.1870233640        4.5601750680        0.7714598550
 H       -10.7015538554        4.0102958077       -2.1142619791
 H       -10.0394533615        3.0526288919       -0.8320005415
 H        -7.1347404771        3.2112515272       -4.5228211560
 H        -8.7764054784        3.1688209946       -4.4162909375
 H        -8.4270913954        0.7878643734       -3.1068067593
 H        -6.7971216545        0.9994177882       -3.7162566305
 H       -12.0212784082       -1.6517204662       -4.6488359879
 H       -12.3282229102       -0.4215178079       -5.8944397481
 H       -14.0678561785       -0.4272180812       -3.9582001921
 H       -13.3335539502        1.0112902805       -3.7902160212
 H       -10.8177355181       -0.7742208386        0.3152689873
 H       -12.1405928093       -1.5932875013        0.9219259026
 H       -10.8401135876       -0.7371868954        3.0473360251
 H       -12.5252270196       -0.1384752372        2.8625766773
 H        -7.8479777545        3.0701484833        2.7247858607
 H        -8.3898042816        2.0341001796        4.1708793968
 H        -6.6354465686        3.4466296174        4.9576730314
 H        -8.1194367610        4.3144696594        5.5710457141
 H        -5.1882851657        9.1160089208        3.9098802317
 H        -6.5493813517        9.5157012121        4.9621629084
 H        -6.5760458985        9.8218716518        3.2759707276
 H        -6.8878097868        6.1843864272        6.8000696120
 H        -8.3314037954        6.6957196263        5.9308057595
 H        -6.9409256515        7.7790512758        6.3337541478
 H        -4.7885487923        5.5146453713        5.0372145794
 H        -4.6912753276        7.1955056871        5.5057368698
 H        -4.5587735375        6.6861286518        3.7807701551
 H       -12.4064847696        3.4812268842        2.3374656650
 H       -12.7720993472        3.6396833376        3.9738022267
 H       -13.3425945391        2.2433540396        3.2182512710
 H       -10.8234383008        2.1970979592        5.7228143707
 H       -10.4679803496        0.6224362086        4.8050751313
 H       -12.0762352820        1.1369254779        5.1049886770
 H       -13.8856799177        1.9287476497       -1.6650754536
 H       -15.2144165306        1.2465144075       -0.6092669693
 H       -14.9363367677        0.7552706687       -2.3310661732
 H       -13.6641732432       -2.1720326644       -0.3686166955
 H       -15.0708251589       -1.6016683749       -1.3129129707
 H       -14.7259433377       -1.0686022205        0.3072381848
 H        -8.8976705897       -0.6210845436       -7.5402558840
 H       -10.4426691056        0.1706093268       -7.3367020234
 H       -10.1697842838       -1.6561139440       -7.0214877434
 H        -9.1295513731       -1.6021984059       -3.5591375573
 H        -8.0054326385       -1.9733419806       -5.0320347336
 H        -9.7383500184       -2.3492870323       -5.0582526018
 H        -8.4938814262        6.7089462845       -3.0793439797
 H        -9.5266659658        5.4256451273       -3.7401484516
 H        -7.8055651617        5.7029310670       -4.2475879740
 H        -5.8739020651        5.4517618839       -2.1337930941
 H        -6.5171970046        4.8090407902       -0.5853047483
 H        -6.8126232206        6.4339615620       -1.1498715873
 H       -12.3866788474        6.1308805571        2.3626393327
 H       -13.4542152804        5.0906657496        1.6612704984
 H       -14.0548546488        6.6550209026        2.3072118652
 H       -13.9911913095        7.9309074796       -1.2106317007
 H       -14.6648278576        8.2102430367        0.3572913214
 H       -14.9360931645        6.6565786483       -0.4581401260
 Na       -9.3778210660        6.3844934711        2.1581397181
