117

 C       -15.4391765459        6.9202043598       -0.0407882624
 C       -13.9492301703        7.2690601462        0.0716839849
 O       -13.1192615047        6.4508059092       -0.2176034060
 C       -13.4848355736        8.7128004749        0.7404783984
 C       -12.8521320000        8.3860101422        2.1819795327
 O       -12.2076348060        7.3870952459        2.3761993312
 C       -13.2427002167        9.2692000917        3.3264909460
 C       -13.3720019763        8.3986133049        4.5342791401
 C       -14.3618048162        7.3037075155        4.2811024420
 O       -15.0518395262        7.2376610060        3.3030003104
 C       -14.1517255771        5.9592660660        5.0807456582
 C       -13.7704848576        4.8688739846        4.0484998042
 O       -12.5538836473        4.5831984743        3.9019497296
 C       -14.7823003307        4.1286577037        3.1868432652
 C       -14.7501467473        2.6642456316        3.5874487136
 C       -13.8649501393        1.9070196925        2.5861478743
 O       -13.1794903395        2.4513451204        1.6847730688
 C       -13.7316960963        0.3783510148        2.5740088197
 C       -12.1495722311       -0.1604504177        2.6298592083
 O       -11.8705293177       -1.1023508467        3.3793964633
 C       -11.0608364476        0.5250316438        1.7971287645
 C       -10.6070753339        1.6400702139        2.7791538938
 C        -9.5427040050        2.6275815462        2.2267039780
 O        -9.9351364475        3.6135160745        1.6214285119
 C        -7.9977114796        2.5858709910        2.5631234205
 C        -7.2054388637        1.9029020402        1.3580194832
 O        -6.2759792598        1.1780582894        1.5368607654
 C        -7.3913754274        2.5446107477       -0.0416160669
 C        -6.8723421220        1.6144286003       -1.1955018391
 C        -7.4693823653        1.8839429155       -2.5501485199
 O        -8.6486870499        1.6670968213       -2.7594261265
 C        -6.5631111150        2.6072094114       -3.7525802357
 C        -5.3576412206        1.3723924211       -3.9130176504
 O        -4.6550369592        1.2022069586       -2.9479238058
 C        -5.0048779744        0.6462872779       -5.2464134893
 C        -4.1409973926        1.5879048529       -6.1116297319
 C        -3.0329729381        0.9361686542       -6.9460212359
 O        -2.3780066292        0.0191421184       -6.4724538596
 C        -2.8557696551        1.3658424640       -8.5131903057
 C        -4.2253736917        1.5245646564       -9.3322345084
 O        -5.2297142129        2.0602037250       -8.8609499530
 C        -4.2747300169        1.1107710691      -10.7939189417
 C        -2.1174147765        2.7040155902       -8.5836555035
 C        -1.9055599526        0.2243790000       -9.1700107773
 C        -7.4462181198        2.8034577364       -5.0972166900
 C        -5.7847179349        3.8468954537       -3.3443176460
 C        -7.3563275146        3.9448177785        2.8028066913
 C        -7.9700213110        1.7358620833        3.8380422638
 C       -14.4433849885       -0.1950622760        3.9063695353
 C       -14.5282836253       -0.0500877435        1.3427696565
 C       -13.0774390292        6.0116341171        6.1988528797
 C       -15.5604872349        5.5422952722        5.7228690076
 C       -12.2011500466        9.1176986737       -0.0292706101
 C       -14.6306065981        9.6963779287        0.7636806665
 H       -15.8761785788        7.5146982485        0.7226273090
 H       -15.5428628102        5.8760302669        0.3059790421
 H       -15.8041052742        6.9672003068       -1.0337485625
 H       -14.1797151357        9.7878112981        2.9839606279
 H       -12.6090580140       10.1284392191        3.5406265752
 H       -13.6154194950        9.0660160226        5.3046179860
 H       -12.4660046491        7.8965578064        4.7782082702
 H       -14.5135643434        4.2793061732        2.1133047337
 H       -15.8099011371        4.4516590716        3.2949343057
 H       -15.7516951908        2.2892744340        3.4912997107
 H       -14.3744426073        2.3922483007        4.5405341638
 H       -11.3291044882        0.8383856867        0.8222663250
 H       -10.2926886694       -0.2120759865        1.6107218528
 H       -10.3752921985        1.0627457132        3.6896242518
 H       -11.4432041193        2.3225804073        2.9344959701
 H        -6.9320380113        3.5799939218       -0.1418857713
 H        -8.3988937141        2.8432202147       -0.4007239933
 H        -7.2292883920        0.6164363992       -0.9106803657
 H        -5.7864711023        1.5400437433       -1.3968349813
 H        -5.9552116278        0.5347653216       -5.7822613815
 H        -4.5645076390       -0.3619297642       -5.0124295996
 H        -3.5760493557        2.2535497737       -5.3814967273
 H        -4.8520573506        2.2218740389       -6.6573357306
 H        -5.1603567311        1.4920056849      -11.1742799518
 H        -4.2461366565        0.0016317886      -10.9188170293
 H        -3.2745256718        1.4259070164      -11.3235940296
 H        -2.4708680660        3.5515384583       -7.9353074222
 H        -1.9555083487        3.0229606170       -9.5921601273
 H        -1.1405562217        2.4594521064       -8.1885186404
 H        -1.9571916148        0.1036891717      -10.2532367327
 H        -2.0387179259       -0.7697432290       -8.6631738042
 H        -0.7982181967        0.4945298106       -8.9990607088
 H        -7.9205779332        3.7105804646       -5.1223027706
 H        -7.9521514960        1.8788962478       -5.3211281825
 H        -6.7242635388        2.6060711169       -5.9535669684
 H        -5.3387882023        3.6645298355       -2.3570697203
 H        -6.5446891751        4.6547279690       -3.3005649724
 H        -5.0007677990        4.1371444868       -4.0249056498
 H        -6.3944485482        3.7997499567        3.4845937513
 H        -7.8604415626        4.7845799834        3.3242518416
 H        -6.9675359697        4.3919620426        1.8847151424
 H        -8.0371460337        0.6922397090        3.6966744757
 H        -8.8543270433        1.9482362982        4.4432756346
 H        -7.0632523733        1.9228170619        4.3650425383
 H       -15.0530689967        0.5731920749        4.3242460448
 H       -13.6930752596       -0.4974701666        4.6112756680
 H       -15.1229678024       -1.0241797272        3.7341008265
 H       -14.4182798295       -1.1037291316        1.1081565461
 H       -14.2146019414        0.5466128475        0.5010157917
 H       -15.5889846356       -0.0677465257        1.3049860888
 H       -13.2836795792        5.2797652469        7.0245527365
 H       -13.3360866294        6.9573608873        6.7684671978
 H       -12.0222004234        6.0529674902        5.8766151333
 H       -15.6172773418        5.7164596748        6.8799315694
 H       -15.7353027008        4.4252733101        5.7248885990
 H       -16.3062261813        6.0051036711        5.0703673039
 H       -11.6234794023        8.3718145013       -0.5069275439
 H       -11.5059005783        9.6242597694        0.6312223129
 H       -12.3276682366        9.7719771058       -0.8416022551
 H       -14.3378227502       10.7460118534        1.0033653754
 H       -15.4150208727        9.4887714917        1.5157357401
 H       -15.1680940497        9.7208348712       -0.1629069893
 Na      -12.1910139366        4.8627866419        1.4952692137
