117

 C       -15.4188379957        7.0296690219        0.0011774498
 C       -13.8896399311        7.3166492955        0.1992891100
 O       -12.9576844228        6.4913665576       -0.0100950468
 C       -13.4610612885        8.7175931002        0.6464427873
 C       -12.9285073401        8.2322489308        2.0761616804
 O       -12.1865898773        7.2868515599        2.2233689697
 C       -13.1767041110        9.2776372521        3.2425792313
 C       -13.3014065871        8.4155354431        4.5014876131
 C       -14.2887880377        7.3150444197        4.1561041451
 O       -15.1729081602        7.4416767209        3.2981789105
 C       -14.2358200547        5.9265256789        5.1796212107
 C       -13.7552545588        4.8923913542        4.0263660511
 O       -12.5460558690        4.8105972686        3.8009820848
 C       -14.7728188950        4.1209967122        3.3001708669
 C       -14.7436201644        2.6660445061        3.5942092088
 C       -13.7440286771        1.9574022064        2.6046858170
 O       -13.2754403948        2.6969862999        1.8194739543
 C       -13.6336489462        0.3664875010        2.6723970244
 C       -12.1838074470       -0.2541919048        2.6562905458
 O       -11.9628548255       -1.1492951485        3.3988102269
 C       -11.1056009710        0.4569423300        1.8947840460
 C       -10.5054391483        1.6393634209        2.8133211437
 C        -9.7130367826        2.7470529998        2.2146003268
 O       -10.1622998734        3.7631337363        1.6038244828
 C        -8.1021549825        2.5348139986        2.4996217788
 C        -7.1816861053        1.8646884680        1.3036641142
 O        -6.5669345387        0.9116043228        1.6439696342
 C        -7.2872008363        2.5392446150       -0.0653028198
 C        -6.8432771537        1.7076048949       -1.2782208521
 C        -7.5354147008        2.0823329972       -2.7145311908
 O        -8.6499726965        1.8103636807       -2.8330929273
 C        -6.4338710580        2.4536097830       -3.7377345354
 C        -5.3040646426        1.4662163787       -3.8648417544
 O        -4.4541459391        1.3362610722       -3.0348742604
 C        -5.2226900202        0.7608453188       -5.2111695975
 C        -4.2063178092        1.6143324984       -6.0571231885
 C        -3.2163690689        0.7763001348       -6.9707890954
 O        -2.6050764883       -0.1407676803       -6.4722735778
 C        -2.8438561479        1.1984320091       -8.5275614265
 C        -4.1736596327        1.4817807743       -9.3656975966
 O        -5.0226937249        2.1028845408       -8.8092135049
 C        -4.1014535711        0.8069068550      -10.7825632003
 C        -2.0995990214        2.6110431842       -8.7541113381
 C        -1.8973380946        0.0577898041       -8.9175657573
 C        -7.2335675160        2.5167412568       -5.1475841783
 C        -5.9727610016        3.8760707337       -3.2835857347
 C        -7.4311510995        3.9368520391        2.7750791310
 C        -7.9562988098        1.6424528957        3.8067450209
 C       -14.2692699269       -0.2735269947        3.9970095952
 C       -14.2924037464       -0.1252564009        1.3442859256
 C       -13.0837702629        6.0461219544        6.1906213707
 C       -15.6071347493        5.6690931831        5.8186295287
 C       -12.3006120700        9.2963161880       -0.0941383547
 C       -14.5497270801        9.7633607616        0.6253165306
 H       -15.8864504097        7.0259428015        0.9748861397
 H       -15.5842623604        6.0506879551       -0.5035990340
 H       -15.7340710414        7.8128175210       -0.7848094114
 H       -13.9118760173       10.0073567017        2.9883008299
 H       -12.2600409490        9.9122416166        3.4609558807
 H       -13.7457897446        9.0689034373        5.3682856340
 H       -12.3372574304        7.9991123674        4.8050020976
 H       -14.6696091310        4.2690492460        2.2484590969
 H       -15.7508482474        4.5153682986        3.5692953299
 H       -15.7418025034        2.2596256746        3.7321336672
 H       -14.2176810775        2.4174049362        4.5188534602
 H       -11.4475795989        0.7191672574        0.9630018554
 H       -10.3619665410       -0.2657540283        1.6684063535
 H       -10.0455200117        1.0791968863        3.5275208362
 H       -11.3716343917        2.2331968265        3.2384853277
 H        -6.8003205950        3.4923336206       -0.2144338052
 H        -8.3556779996        2.9006931465       -0.3783070272
 H        -7.0606190701        0.5910063234       -1.1441724975
 H        -5.8000984038        1.8191640118       -1.4791652502
 H        -6.1716173357        0.6229989021       -5.7234207721
 H        -4.7175443836       -0.2631035313       -5.0554064921
 H        -3.4954868793        2.1740539819       -5.3371676317
 H        -4.7805870504        2.3375241378       -6.6680662591
 H        -4.9732655718        0.9343769830      -11.4414264705
 H        -3.8322560959       -0.2552151582      -10.6736736144
 H        -3.2268894889        1.1635379890      -11.1957983150
 H        -2.7132234757        3.3984700323       -8.9793676680
 H        -1.3506595357        2.4536167994       -9.5086100564
 H        -1.6158373654        2.8898096063       -7.8076201292
 H        -1.7414130420        0.1053319075       -9.9857575729
 H        -2.2199885128       -0.9927358063       -8.5780722787
 H        -0.9156538074        0.2121879353       -8.5240986225
 H        -7.9966379997        3.2577440248       -5.1598783552
 H        -7.4598418009        1.5889403013       -5.5219783920
 H        -6.4315930862        2.5965308387       -5.8711160655
 H        -5.4854514168        3.8508165223       -2.3464092729
 H        -6.9189726734        4.4436101292       -3.3300995094
 H        -5.2186770354        4.3493028273       -4.0021272809
 H        -6.6521442900        3.7911297599        3.5561930594
 H        -7.9141585508        4.8335664366        3.1078376501
 H        -6.8201424993        4.2760222335        1.9040005782
 H        -7.9928430443        0.5435059560        3.8057893957
 H        -8.6642251907        1.8916972844        4.5161737898
 H        -6.9424723330        1.9103021033        4.1776623725
 H       -14.9575201010        0.3617737632        4.6473396126
 H       -13.3861266939       -0.4747843358        4.5454036129
 H       -14.7113110974       -1.2562908984        3.7953640473
 H       -14.1378566617       -1.2057698711        1.0753828902
 H       -13.9778963693        0.4905307398        0.5430835038
 H       -15.3924595122       -0.0918632641        1.2202537718
 H       -12.9158705802        5.1572266462        6.7822523689
 H       -13.4113179458        6.7696189080        6.9641454270
 H       -12.1134472686        6.3927720037        5.7163954575
 H       -15.6438161836        5.6897179013        6.9004939387
 H       -15.6356072780        4.5134125895        5.7580815878
 H       -16.4248159545        6.0647151168        5.1844434432
 H       -11.4748462701        8.7760357125       -0.4450560573
 H       -11.8874506123       10.0794882865        0.5090263788
 H       -12.6162802180        9.8389361736       -1.0060777006
 H       -14.1273600478       10.7362011941        0.7835339096
 H       -15.3100035396        9.7240949246        1.3866389808
 H       -15.1242178355        9.7397006181       -0.3148590291
 Na      -12.2844541991        4.8690580630        1.4928594844
