117

 C       -11.7405077315        9.3185542420       -0.2576047199
 C       -11.8942110903        8.2342393537        0.7351988621
 O       -11.1006523843        8.1198017743        1.6704175588
 C       -12.9171606708        7.0361080794        0.3927685794
 C       -12.2170153787        6.0643621788       -0.6807031507
 O       -12.2497866881        6.2639662933       -1.8838409222
 C       -11.5559464932        4.8545572839       -0.1542913850
 C       -10.4259672376        4.2560754719       -1.0564590325
 C        -9.1087305680        4.9158940385       -0.9744961179
 O        -8.7861633278        5.6717128181       -0.0440041089
 C        -8.0732147972        4.6665556286       -2.1723460474
 C        -7.7884840030        3.1187852324       -2.3797158868
 O        -7.5117697285        2.4296487815       -1.4066824314
 C        -7.7874927855        2.6692217246       -3.8493451885
 C        -7.5397427331        1.1227877750       -3.9468621821
 C        -8.1101598997        0.5781470620       -5.2655729256
 O        -7.5348775005        0.9294470022       -6.3058931577
 C        -9.4591103620       -0.3798086810       -5.2653994058
 C       -10.6143856112        0.1813210217       -4.5085918309
 O       -10.4964452565        1.1976316610       -3.8445532399
 C       -11.9541021209       -0.5040347433       -4.6875004494
 C       -13.0073561501       -0.1547744096       -3.5959613919
 C       -12.5929038419       -0.4318003357       -2.2181040316
 O       -11.6643826942       -1.1882285996       -2.0332916663
 C       -13.5343059373       -0.2235394271       -0.9550969842
 C       -12.6258180346        0.3428918354        0.2178980765
 O       -12.8047989024        1.5114260165        0.5025151504
 C       -11.5383474148       -0.4337510851        0.8472038292
 C       -11.1694092162       -0.0169643512        2.3302559459
 C       -10.5344115103        1.3724111131        2.4174347099
 O        -9.6690355423        1.6771533919        1.6180823654
 C       -10.8832232517        2.2085231289        3.7261330098
 C        -9.8141032041        3.4231012129        3.6433735130
 O       -10.2622747279        4.5334631809        3.4935915592
 C        -8.2645030363        3.0993957604        3.7605476101
 C        -7.6241743950        4.2181237966        4.6222664596
 C        -7.2443609178        5.3965350437        3.7066809915
 O        -7.0252875904        5.2929293060        2.5217651584
 C        -6.8540333995        6.6530164883        4.4504107266
 C        -7.2212049750        7.9550050367        3.6526564584
 O        -8.2421752176        8.1608225482        3.0793563748
 C        -6.1727438481        9.1203549105        3.5574269257
 C        -7.5233775732        6.7134311346        5.8666436366
 C        -5.3554598306        6.5255315800        4.6191515170
 C       -12.3264223789        2.7097912382        3.5418635917
 C       -10.8194910151        1.6385098605        5.1035668881
 C       -14.6844175741        0.7341372109       -1.2845751985
 C       -14.1211131229       -1.6084739451       -0.6941514695
 C        -9.8686089927       -0.7019150239       -6.7571930556
 C        -8.9460781881       -1.7935591728       -4.6636482628
 C        -8.7274794769        5.3528034599       -3.3813545870
 C        -6.6264491866        5.3070601661       -1.8523339434
 C       -13.2323268279        6.3572608450        1.7481056861
 C       -14.2874842248        7.5686491182       -0.1615788018
 H       -12.1849517923        9.0732762141       -1.1866867020
 H       -10.7373678374        9.6024189440       -0.5317940198
 H       -12.2145831686       10.2255468409        0.1479169193
 H       -12.2671155864        4.0204519138        0.0575407765
 H       -11.0828457058        5.0342641023        0.7836661349
 H       -10.7366351643        4.3077006242       -2.0839000459
 H       -10.1830162214        3.1928257483       -0.8706001846
 H        -7.1760867099        3.3699747078       -4.4853159709
 H        -8.7872737215        2.9312487654       -4.2345656198
 H        -7.9802014520        0.6318437935       -3.1348642867
 H        -6.4683740511        0.8172776097       -3.9365084219
 H       -11.7843365518       -1.5471773344       -4.8336341419
 H       -12.3105317143       -0.1839954191       -5.6376706122
 H       -14.0870834836       -0.4461445284       -3.8388152308
 H       -13.1502323290        0.9132359303       -3.8016634365
 H       -10.5492715863       -0.4266918049        0.3277991929
 H       -11.8078410957       -1.4772921883        0.8182328359
 H       -10.5466299352       -0.8075742286        2.6566467088
 H       -12.1116374740        0.0471817122        2.8989317838
 H        -8.0046941101        3.4025743762        2.7465159416
 H        -7.9861462156        2.1101849630        4.1212547833
 H        -6.7662974477        3.8206004475        5.1085859735
 H        -8.3975653590        4.4356568981        5.3165784226
 H        -5.4553510325        9.0763159840        2.7192104701
 H        -5.4989071714        9.3521306432        4.3695078048
 H        -6.6179773570       10.0465970200        3.3481428162
 H        -7.2975215429        5.8287186797        6.4471323885
 H        -8.6373368358        6.7228496734        5.7302629693
 H        -7.1704809357        7.5472026407        6.4585887191
 H        -5.0835984655        5.7579587158        5.3543944781
 H        -4.9433725279        7.5120572569        4.8887581925
 H        -4.9472405450        6.2934109573        3.6484204583
 H       -12.5083363797        3.0020267326        2.5251195119
 H       -12.4731756556        3.6493643685        4.0831352285
 H       -13.1546864032        2.0430027335        3.8832102695
 H       -11.4965093098        2.2846037927        5.6550877382
 H        -9.8045697635        1.7502390801        5.5038314535
 H       -11.1622406232        0.5801550889        5.1906733791
 H       -14.2080482004        1.6016676882       -1.6664109400
 H       -15.2909445008        1.0189480055       -0.4638120925
 H       -15.3729890112        0.3539981870       -2.0632643957
 H       -13.3566153565       -2.3860771515       -0.5595091337
 H       -14.8002642906       -1.8697781485       -1.4974431549
 H       -14.7661675859       -1.6906501518        0.1572901236
 H        -8.9061673047       -0.8960581832       -7.3353143623
 H       -10.3408548898        0.1141465732       -7.3185854982
 H       -10.4946908107       -1.5630697499       -6.7460540395
 H        -8.3562704621       -1.4864293909       -3.7538536707
 H        -8.2281889145       -2.1444641879       -5.4056767265
 H        -9.6908135303       -2.4717095680       -4.4075260733
 H        -9.0357840956        6.3616556726       -3.0924195570
 H        -9.6356526122        4.8620177761       -3.6693629605
 H        -8.0816004093        5.4034203948       -4.2687355254
 H        -6.0154871042        5.3452839119       -2.7131232112
 H        -6.0377668858        4.6492773366       -1.1387760809
 H        -6.5979006332        6.3403854225       -1.5434427224
 H       -12.3331404391        5.9290713882        2.1390124475
 H       -13.8393878834        5.4021428682        1.5782160069
 H       -13.7136746995        7.0378805965        2.4671520442
 H       -14.2646765084        7.9663230389       -1.1578451061
 H       -14.7470052707        8.3250214757        0.4917294107
 H       -14.9831636371        6.7526759495       -0.2469093417
 Na       -9.5372955500        6.4153111679        2.0113867608
