117

 C       -11.8246287242        9.5058490155       -0.2832003385
 C       -11.7823584639        8.1184807028        0.4146098890
 O       -10.7929316559        7.8663032869        1.1304594086
 C       -12.9942070859        7.0770369845        0.3658196215
 C       -12.3527382384        5.9122209703       -0.5378702096
 O       -12.6845459071        5.9534585359       -1.7050755770
 C       -11.4804492711        4.8669867561       -0.0066377118
 C       -10.4531132261        4.1832246031       -1.0163899152
 C        -9.1078466511        4.8866633625       -0.9892520410
 O        -8.7554229355        5.6297247459       -0.0828769431
 C        -8.1135567263        4.6517772432       -2.2497321687
 C        -7.9047824308        3.0596587979       -2.3663002886
 O        -7.9092485064        2.3975160120       -1.3488485105
 C        -7.6426300009        2.6047402142       -3.7826066590
 C        -7.4965359774        1.0580199525       -3.7609857554
 C        -8.1145523411        0.6070588736       -5.1442766697
 O        -7.7614867026        1.1842293844       -6.1560578489
 C        -9.4229188417       -0.4668845666       -5.1954693805
 C       -10.5611042128        0.2371825515       -4.4827669946
 O       -10.3303349286        1.2305176005       -3.8118976072
 C       -11.9214018803       -0.4690244788       -4.4564754492
 C       -12.8081541763       -0.0557626245       -3.2640263414
 C       -12.5610793263       -0.7135470151       -2.0147649339
 O       -11.5741434617       -1.4014255331       -1.8448990943
 C       -13.5755267422       -0.4451565969       -0.7858895225
 C       -12.6834971410        0.3391329662        0.1827041954
 O       -13.1140943778        1.4115476440        0.6517474458
 C       -11.4799000495       -0.2881424587        0.6763002257
 C       -11.3088942660        0.0975329411        2.1603609968
 C       -10.4483980165        1.3921768544        2.3244154318
 O        -9.6424020188        1.7472401318        1.5012748650
 C       -10.7106163306        2.1875781008        3.6255653441
 C        -9.8726531440        3.5308587902        3.5129461753
 O       -10.4549344996        4.5645374814        3.2764327618
 C        -8.3631169957        3.2754762191        3.7101700380
 C        -7.4336409171        4.2775069312        4.4603234279
 C        -7.2318628040        5.6467800864        3.7261148723
 O        -7.3641600618        5.5965906700        2.5308195771
 C        -6.7725935079        7.0161784392        4.4010569379
 C        -7.0453439973        8.2342271571        3.3081591773
 O        -8.0857425116        8.1441914598        2.6581878624
 C        -6.0885191483        9.3356579966        3.2913398748
 C        -7.6545664600        7.3195037953        5.5589313224
 C        -5.2049311011        6.8098691296        4.7927586442
 C       -12.2568584010        2.5904831458        3.7864053174
 C       -10.3717222568        1.2499462219        4.8704593096
 C       -14.8334691387        0.3230160754       -1.2153238341
 C       -13.9395634441       -1.7532878562       -0.0691433090
 C        -9.6787970633       -0.8909761309       -6.6130852978
 C        -9.0667300529       -1.7369417657       -4.3316036786
 C        -8.7688482045        5.1979693852       -3.4871886341
 C        -6.7878538929        5.3594307805       -2.0020878810
 C       -13.2899851297        6.5786880448        1.8035054112
 C       -14.2067535509        7.5626820073       -0.3445758663
 H       -11.2950643265        9.5405471110       -1.1262753551
 H       -11.4238752376       10.2732042140        0.3535346099
 H       -12.8082951972        9.8242547743       -0.4670994602
 H       -12.0494771470        3.9989670304        0.4404121887
 H       -10.8955142851        5.2599064447        0.7930122710
 H       -10.8221035772        4.2600017052       -2.0060461126
 H       -10.2854274386        3.1370541469       -0.7345622578
 H        -6.7663919601        3.1321221881       -4.2178530034
 H        -8.4943450023        2.9175129155       -4.3757983263
 H        -7.9384941125        0.5750011199       -2.9202692228
 H        -6.4325536627        0.6922321406       -3.6707820064
 H       -11.7853014264       -1.5556348288       -4.3157919553
 H       -12.3837722261       -0.4455300293       -5.4432846359
 H       -13.8648993283        0.1054127010       -3.6233592969
 H       -12.4791732141        0.9432351948       -2.9509512969
 H       -10.6859741213        0.0954334519       -0.0176135050
 H       -11.5595338491       -1.3575292807        0.5364693061
 H       -10.8100062305       -0.6678289657        2.7268786846
 H       -12.3796838801        0.1289589504        2.3274691902
 H        -7.8323396109        3.2892547970        2.7694002755
 H        -8.3698637939        2.3719659460        4.2847451610
 H        -6.5146844128        3.7786951351        4.5675700119
 H        -7.8526302591        4.4897500139        5.4136319534
 H        -5.0708479577        9.0325872366        3.0253926305
 H        -5.8971591456        9.9751323316        4.1118706043
 H        -6.3349918087        9.9601580899        2.5208928332
 H        -7.5951905742        6.5322821259        6.2752622920
 H        -8.7148329429        7.3643045802        5.1760874845
 H        -7.4517175866        8.3005465750        5.9488146163
 H        -5.0520630534        5.8212911518        5.2673685675
 H        -4.9597165283        7.6418119008        5.5262853506
 H        -4.5224610250        7.0088567609        3.9801854547
 H       -12.4945772104        3.3188162401        3.0086076187
 H       -12.4877864824        3.0683234874        4.7159873502
 H       -12.9986017824        1.7352011168        3.5782067773
 H        -9.9637946793        1.9871448106        5.6131475861
 H        -9.6254039969        0.5564780053        4.6871952180
 H       -11.2976146212        0.8170184805        5.1271620047
 H       -14.5692550730        1.3028084528       -1.5179993082
 H       -15.4530723381        0.5241988594       -0.3366983650
 H       -15.4970128731       -0.2030417618       -1.9369813157
 H       -13.1138599720       -2.4751806804       -0.0441657303
 H       -14.7220454919       -2.2710252348       -0.6878805470
 H       -14.3436262944       -1.6314587943        0.9446834499
 H        -8.7504457060       -1.2497001882       -7.0423354322
 H       -10.0667150973       -0.0998232288       -7.2308976736
 H       -10.4572025814       -1.6500983532       -6.6632023216
 H        -9.1816191888       -1.5612156074       -3.2193080585
 H        -8.0366022667       -1.9417433286       -4.5725656066
 H        -9.6143201823       -2.5495051286       -4.6630368194
 H        -9.0122876505        6.2323298479       -3.3172990544
 H        -9.7215834617        4.7845752477       -3.6841705643
 H        -8.1450488264        5.0497475391       -4.3872770106
 H        -5.9331976690        5.0005001043       -2.5817726115
 H        -6.4613365487        5.1142565220       -0.9353235038
 H        -6.8456002847        6.4532483581       -2.1212955804
 H       -12.4242569877        6.6778021890        2.4514081176
 H       -13.8579164290        5.6157291913        1.8267952714
 H       -14.0458390887        7.3697307656        2.1788658399
 H       -14.1277045308        7.6685281971       -1.4395636401
 H       -14.4487842990        8.6037198924        0.0573572434
 H       -15.1151255505        6.9981093360       -0.1661670191
 Na       -9.4777160323        6.0869269335        2.0329873851
