117

 C       -12.0866343768        9.1219252901       -0.8309106467
 C       -11.9619176361        8.0859618229        0.2587388472
 O       -11.0600957378        8.1582152398        1.1018379412
 C       -13.0212292185        6.9012729010        0.3557046379
 C       -12.3067445554        5.8188185609       -0.6029257366
 O       -12.3016624252        5.9763262173       -1.7826768724
 C       -11.6941776422        4.4375561561       -0.0890615637
 C       -10.7139745662        3.8249030231       -1.0906607194
 C        -9.3930654661        4.5851161014       -1.1819329158
 O        -9.0530425243        5.4370171592       -0.4231234973
 C        -8.4632719139        4.3270435851       -2.4713428392
 C        -7.9723215378        2.8342171455       -2.3898994727
 O        -8.2548434162        2.0511301887       -1.5060669682
 C        -6.9888045149        2.3993839394       -3.5645738623
 C        -7.2192661684        0.9569496365       -3.9339492656
 C        -8.3441663241        0.6872599133       -4.8753795576
 O        -8.4881386104        1.2949788157       -5.8913107980
 C        -9.2848905768       -0.6406175981       -4.5914346674
 C       -10.6052468365        0.0094263716       -4.0120092451
 O       -10.4535821159        1.1056461148       -3.4897298280
 C       -11.9680163280       -0.6403227405       -4.1137987266
 C       -12.9297809922       -0.1400467903       -2.9359963292
 C       -12.7118773112       -0.9019662041       -1.7490773753
 O       -11.7577658752       -1.6362273859       -1.6598642483
 C       -13.5295244267       -0.7288941803       -0.3539900992
 C       -12.6015460713        0.1661342167        0.5118744953
 O       -12.9173338351        1.3693729609        0.6489417320
 C       -11.2837563456       -0.3671455567        0.9579701657
 C       -10.8673937341        0.1989228495        2.3321005475
 C       -10.3351014207        1.6298181843        2.1996339082
 O        -9.8943967891        2.0976426418        1.1722210562
 C       -10.3701154182        2.4162677808        3.6441951327
 C        -9.5069274054        3.6784857226        3.3955785951
 O       -10.0667028044        4.5832820011        2.7891899688
 C        -8.1181272541        3.7831924411        4.0017841950
 C        -7.6779624204        5.0722024814        4.7578558463
 C        -7.2031887374        6.0784060504        3.5555980316
 O        -6.8848708987        5.7004522322        2.4469225326
 C        -6.9838641713        7.5082149074        4.0561254082
 C        -6.9744644792        8.5857209247        2.8902013197
 O        -7.9444465885        8.5802787711        2.1193280882
 C        -5.9579667613        9.6558349523        2.8936703055
 C        -7.9547523874        8.0957669164        5.1311537138
 C        -5.5901418973        7.3946761716        4.6129353820
 C       -11.8670763234        2.7524699809        3.9109093809
 C        -9.8040515774        1.5739129019        4.7717056539
 C       -14.8720957664       -0.0619136753       -0.4725478827
 C       -13.6763945155       -2.1978888161        0.2130515295
 C        -9.5450200834       -1.3465265973       -5.9990900822
 C        -8.7707292432       -1.6971407699       -3.6271824445
 C        -9.3061224874        4.3906218931       -3.8088393180
 C        -7.2765826390        5.3446720979       -2.5490871032
 C       -13.0562675400        6.3469092300        1.7618350402
 C       -14.4329065861        7.2901920106       -0.0965487674
 H       -11.1403763231        9.7064126708       -1.0732373835
 H       -12.7592576902        9.8245263063       -0.4218522036
 H       -12.5107948029        8.8165878826       -1.7780783854
 H       -12.5585752795        3.7465462763        0.0189419698
 H       -11.2814467041        4.4297309361        0.9009762799
 H       -11.2054108687        3.7177366615       -2.0658175958
 H       -10.4683509946        2.8506415681       -0.6402789692
 H        -5.9334080823        2.5588364188       -3.1646493798
 H        -7.2045204657        3.0569919723       -4.4420615719
 H        -7.3203591517        0.4228119294       -3.0576330695
 H        -6.3283525587        0.6357311656       -4.5224316183
 H       -11.9593374725       -1.7187315611       -4.1203001834
 H       -12.4812454629       -0.2709993664       -4.9416200681
 H       -13.9965532512       -0.3233319812       -3.2717764052
 H       -12.6568341822        0.9086226928       -2.6844843919
 H       -10.3840390365       -0.0480793780        0.3881725704
 H       -11.3377409612       -1.4355767002        0.9308761665
 H       -10.0848469211       -0.4003525913        2.6814770633
 H       -11.5597249462        0.1334865017        3.2069846056
 H        -7.3579529340        3.5067940046        3.2563628930
 H        -7.9851359419        2.9075604431        4.6645822690
 H        -6.8310565323        4.9814192084        5.4453411284
 H        -8.4626830871        5.5075886302        5.3769663122
 H        -4.9356665692        9.2945472386        2.9672802718
 H        -6.0454067189       10.3815863831        3.6499329279
 H        -5.8728043709       10.1357980902        1.9357056209
 H        -8.0158038620        7.4462098105        5.9822145990
 H        -8.9776278543        8.2294697496        4.7073534803
 H        -7.4997278089        8.9997027200        5.4825372891
 H        -5.4662751431        6.5391308250        5.3158578188
 H        -5.1829730613        8.3754793759        5.0255099691
 H        -4.9422043150        7.1353762403        3.7775526100
 H       -12.1537089530        3.2966892238        2.9985600675
 H       -12.0877168549        3.3771888607        4.7474894809
 H       -12.4570666275        1.7863366431        4.0197217621
 H        -9.6346565262        2.2772789399        5.6671767277
 H        -8.9518973354        1.1419996077        4.3437293315
 H       -10.5296452890        0.8567361083        5.0948411975
 H       -14.8344700687        0.9290735987       -0.8584917097
 H       -15.5090342775       -0.1333521823        0.4351607341
 H       -15.3624559422       -0.6819857944       -1.2587990859
 H       -12.7412142731       -2.7339692091        0.2159476494
 H       -14.5374479036       -2.6367225170       -0.3394135335
 H       -14.0415368267       -2.0788812563        1.2358814523
 H        -8.6352939726       -1.6873507408       -6.3643280678
 H        -9.7548174346       -0.7011074142       -6.8524514304
 H       -10.3008254482       -2.1966678809       -6.0198480031
 H        -8.6176898839       -1.4683583279       -2.5483117983
 H        -7.8403050187       -2.1014772521       -3.9625564239
 H        -9.4407185395       -2.5208456636       -3.6061959797
 H        -9.7938996565        5.3642380133       -3.8478636694
 H       -10.0356909771        3.6152899048       -3.8282205668
 H        -8.6501971417        4.2466641343       -4.7056517900
 H        -6.7655416689        5.3533858481       -3.5443582255
 H        -6.5673908179        5.2125797296       -1.7114200514
 H        -7.7848434214        6.3267234613       -2.5080111822
 H       -12.0727524449        5.9316791934        1.8566091008
 H       -13.6281794783        5.4466027944        1.7109179906
 H       -13.4165830291        7.1417066560        2.5009182728
 H       -14.4656597369        7.3644980351       -1.1977515001
 H       -14.7861330836        8.2977709696        0.2981665580
 H       -15.1438825644        6.5127157818        0.1661010676
 Na       -9.3831259389        6.5370302953        1.5494955156
