117

 C       -15.2781444587        7.0428465337       -0.0487762895
 C       -13.7857501017        7.3919026383        0.0322903217
 O       -13.0686953920        6.3904674169        0.0543567066
 C       -13.4051908311        8.8089940543        0.5767183866
 C       -12.7963292648        8.3962749727        1.9270494029
 O       -12.2672746592        7.3136521962        2.1694702336
 C       -12.9586805665        9.3038082717        3.1962871692
 C       -13.2560025823        8.4657523748        4.5652623601
 C       -14.3346134653        7.3476062961        4.3575220918
 O       -15.2010944911        7.4506684620        3.4895299229
 C       -14.2711988393        6.0288594933        5.1858213627
 C       -13.7666186622        5.0737891308        4.0222035865
 O       -12.6189015556        5.0264040097        3.7460721896
 C       -14.9958218514        4.2043799777        3.5052491116
 C       -14.7413547226        2.7083307545        3.6841456050
 C       -13.6731979080        1.9445148481        2.6994595121
 O       -13.1954809365        2.5252486674        1.7718046187
 C       -13.5581233558        0.4294345704        2.8292326328
 C       -12.1077924446       -0.1947742237        2.7481361842
 O       -11.9241173787       -1.2364641189        3.2964725226
 C       -11.0769353310        0.5805167312        1.8608723116
 C       -10.6505217534        1.6500196518        2.8289730522
 C        -9.7207153389        2.7071541770        2.2160338526
 O       -10.1697024517        3.7376943411        1.6789669521
 C        -8.1099591866        2.5702741929        2.5358818908
 C        -7.4248199316        1.7978832738        1.2862885317
 O        -6.8786428037        0.6816860883        1.5299080801
 C        -7.3490515090        2.5447331203       -0.0046982045
 C        -6.7570614980        1.6575405484       -1.1180394504
 C        -7.4474946984        1.9527358660       -2.7332195353
 O        -8.6839034501        2.0614857086       -2.9421510783
 C        -6.4780202419        2.4038329910       -3.7734797505
 C        -5.1930228695        1.5380857425       -3.9357616915
 O        -4.3230408228        1.5198576193       -3.0561867500
 C        -4.9775385222        0.6863709412       -5.2456701401
 C        -4.1696163246        1.6854469064       -6.1399236407
 C        -3.2624920869        0.7540943342       -6.9521587488
 O        -2.9675223250       -0.3155639011       -6.4804223222
 C        -2.7274544749        1.0562092144       -8.4038195652
 C        -3.9998526645        1.1791748260       -9.2561917212
 O        -4.8513782980        2.0488717902       -9.0969148658
 C        -4.1022894599        0.5542438389      -10.6232083282
 C        -2.0569776611        2.4144893646       -8.6299400760
 C        -1.8991486372       -0.0900916839       -8.8331088764
 C        -7.2814820168        2.5635628725       -5.1124016200
 C        -6.1816226089        3.9091719295       -3.3515915291
 C        -7.6012201094        4.0111059402        2.7102642185
 C        -7.7463668951        1.7539592146        3.6851839778
 C       -14.3435914954       -0.2650493116        3.9072677834
 C       -14.1075392568       -0.2331150071        1.4692534566
 C       -13.1526153081        6.1097774832        6.2035993180
 C       -15.5873653143        5.7660700219        5.7925008979
 C       -12.2667041927        9.3934774181       -0.2539955418
 C       -14.5865046642        9.7883157320        0.6087561543
 H       -15.4454019634        6.3924432820        0.8911767461
 H       -15.4648959345        6.4192317675       -0.9280109998
 H       -15.8786207541        7.9656976860       -0.2255449114
 H       -13.7247504344       10.0376317852        2.9171554135
 H       -12.0969282416        9.9582156977        3.4520781363
 H       -13.7109274710        9.2505425600        5.2738298368
 H       -12.3205560180        8.0180851256        5.0599554327
 H       -15.0153003799        4.3155981241        2.4344534873
 H       -15.9634104674        4.5525880695        3.8602190519
 H       -15.6871645755        2.1264886719        3.5388384303
 H       -14.4778391457        2.3606269626        4.7397318311
 H       -11.6402303831        0.9643935549        0.9835312881
 H       -10.2517809901        0.0537985481        1.4113115021
 H       -10.3030585535        1.0380548278        3.7198610240
 H       -11.5024714684        2.2375051179        3.1030589839
 H        -6.6814464597        3.3979664188        0.0416722186
 H        -8.2417933047        3.0036411572       -0.4054488957
 H        -6.8496404454        0.5661908706       -0.9073453699
 H        -5.6988682982        1.9297497897       -1.3118292354
 H        -5.8928691734        0.2561750351       -5.7219221706
 H        -4.2080169422       -0.0568303885       -5.1008443357
 H        -3.5073210065        2.3451402155       -5.5553715799
 H        -4.8184987993        2.2268974296       -6.8803686539
 H        -5.1060489358        0.8793991703      -11.0128269733
 H        -3.9288192952       -0.4713048587      -10.7653467657
 H        -3.3779092195        1.0788381755      -11.1909329715
 H        -2.5563992947        2.8021566845       -9.4882128672
 H        -1.0062570230        2.2538102885       -8.8957155993
 H        -2.2166251278        3.1790359923       -7.8660567785
 H        -1.3526605201        0.2617861203       -9.7520428870
 H        -2.5329699469       -0.9355080978       -9.0029965060
 H        -1.1743673613       -0.4008718051       -8.1437169172
 H        -8.1584746748        3.2708910323       -4.8645220249
 H        -7.5389762366        1.6562027145       -5.6118997058
 H        -6.6240397121        2.8394265235       -5.8065907041
 H        -5.4562685651        3.8078404198       -2.5255821387
 H        -7.0152026600        4.5930128999       -3.2799008756
 H        -5.4457284581        4.2353958162       -4.1091419363
 H        -6.9432469664        4.0449072073        3.4530613072
 H        -8.3430739440        4.7166488966        3.0535152527
 H        -7.1169052953        4.5137263746        1.8792337148
 H        -8.2946036515        0.7705595889        3.7408239826
 H        -7.8881482216        2.0824132478        4.7524293470
 H        -6.6805409001        1.5063838292        3.4772941816
 H       -15.3744798861        0.0366672861        4.1397554376
 H       -13.6860596281       -0.1499950613        4.8445427408
 H       -14.2400214272       -1.3205207402        3.6012077153
 H       -14.0353870516       -1.3396856563        1.3968450881
 H       -13.7123063544        0.2004405856        0.5348960843
 H       -15.2118365224       -0.0350024433        1.2517347269
 H       -13.0580684563        5.0790580034        6.5457483602
 H       -13.3698008855        6.6684334220        7.0857278937
 H       -12.1781739912        6.3001611738        5.7946096810
 H       -15.4897517100        6.1715005277        6.7500005989
 H       -15.6290102860        4.7547645247        6.2022483783
 H       -16.4817526710        6.0640415446        5.2002975420
 H       -11.2773911074        8.8726599389       -0.2377823342
 H       -11.9836776677       10.4108722792       -0.0236787311
 H       -12.4871150612        9.4702883535       -1.3322299602
 H       -14.2302948672       10.6878050407        1.0533910736
 H       -15.4878784939        9.6051689066        1.1416674271
 H       -14.9308598854        9.9303115467       -0.4303469730
 Na      -12.2839211684        4.8353960200        1.4798106012
