117

 C       -15.4098537096        7.0055244624       -0.2160631407
 C       -13.8591998382        7.3194064968        0.0230654228
 O       -13.0602467599        6.4680204455       -0.1350853257
 C       -13.3411544548        8.7861725409        0.4470574233
 C       -12.7389059037        8.4702747037        2.0657545152
 O       -12.2178143822        7.3827793027        2.1795936199
 C       -12.8961904458        9.4519299607        3.2683117210
 C       -13.2259103245        8.6439844571        4.5277757346
 C       -14.3328095063        7.5646843722        4.4004036220
 O       -15.2469161287        7.5542423256        3.6579302561
 C       -14.2024581454        6.1978042409        5.3398894340
 C       -13.9386611869        5.1201786318        4.1785252952
 O       -12.8341371096        5.1279643075        3.6380012918
 C       -14.9306736980        4.1471682423        3.4347869811
 C       -14.6409283814        2.6395370817        3.6852814665
 C       -13.8393237077        1.8724200208        2.6865369309
 O       -13.2018303386        2.4929611631        1.7695867017
 C       -13.6216547550        0.3252382739        2.8703772946
 C       -12.1319700942       -0.1905230510        2.7372894006
 O       -11.7072738220       -1.2790280749        3.1507810165
 C       -11.0623237097        0.6855890362        1.9998486233
 C       -10.6143676545        1.7536038410        2.9751303056
 C        -9.6150812065        2.7179782544        2.3540546586
 O       -10.0290828660        3.6360587451        1.7113526152
 C        -8.0672374531        2.5887168989        2.5515416360
 C        -7.5885419856        1.8006251244        1.1670178821
 O        -7.3526957570        0.6319485014        1.2928110877
 C        -7.4667325708        2.4971580727       -0.1374272573
 C        -6.8644857181        1.6024789631       -1.2841918754
 C        -7.3781683567        2.0011435498       -2.5843135326
 O        -8.6271445317        2.1233002694       -2.6730120704
 C        -6.4542726616        2.4674111887       -3.8615091248
 C        -5.1752362446        1.6869683090       -3.9094518110
 O        -4.3235148423        1.7571161128       -3.0251548251
 C        -4.7745515806        0.8571513084       -5.1129195982
 C        -4.0869501381        1.6071250534       -6.2498692445
 C        -3.1913099051        0.6016743270       -6.9536635327
 O        -3.1657678163       -0.5477726185       -6.5520390896
 C        -2.6609414089        0.8921259669       -8.4668553094
 C        -4.0305788329        1.1000639971       -9.4170729985
 O        -4.8166870105        2.0363732376       -9.1162450151
 C        -4.0954469655        0.1587383495      -10.7003700272
 C        -1.9249583176        2.3399483534       -8.3513168832
 C        -1.7548129300       -0.3262909269       -8.8524757305
 C        -7.3949796253        2.6248362785       -5.1374062303
 C        -6.1549102632        3.9175152012       -3.4181048407
 C        -7.7079947201        4.1349452429        2.5679219491
 C        -7.6454243920        1.8016541635        3.7943901327
 C       -14.4884083591       -0.2564000043        3.9878964547
 C       -14.1076502912       -0.2344939068        1.4917005045
 C       -13.0453194257        6.1180769108        6.3885781284
 C       -15.6724606638        5.8859785693        5.9086592876
 C       -12.1547058660        9.3964049184       -0.4753256961
 C       -14.4792004843        9.7421329253        0.6183790083
 H       -15.6064633139        6.0840085356        0.4004646038
 H       -15.5748233382        6.7439415764       -1.2713320082
 H       -15.9911011174        7.8503133666       -0.0810379813
 H       -13.6363445190       10.2781448495        2.9721917159
 H       -11.9915280500        9.9980318260        3.4844959756
 H       -13.3813154296        9.2795890057        5.3545510918
 H       -12.3551114843        7.9729016637        4.7453785015
 H       -14.8518084759        4.3814435147        2.3228727403
 H       -15.9576497944        4.3656444723        3.7426920972
 H       -15.5759880893        2.0226624075        3.5787228293
 H       -14.3798271961        2.4198561917        4.7641439155
 H       -11.4887393071        1.0843992771        0.9982282707
 H       -10.1485510528        0.1222329174        1.6467466558
 H       -10.2371341785        1.0489669748        3.8068380283
 H       -11.4062673435        2.3900155729        3.3151545117
 H        -6.8391972684        3.4082986838       -0.1428727252
 H        -8.3714797387        2.8063555775       -0.5268963445
 H        -7.3118520120        0.6249477221       -1.2420139996
 H        -5.7430478029        1.5810813584       -1.3640130196
 H        -5.6896714627        0.4283219523       -5.5033853686
 H        -4.0719768687        0.1145433856       -4.9044473980
 H        -3.5034448175        2.4666976976       -6.0472992310
 H        -4.8342950634        1.7419272575       -7.0369487337
 H        -5.0492725282        0.1332355391      -11.1266871957
 H        -3.9140955220       -0.8197450520      -10.2833226885
 H        -3.3170606257        0.3667287967      -11.5689099985
 H        -1.5159868346        2.5016708457       -9.4387251086
 H        -1.0465655470        2.1906345011       -7.7117006660
 H        -2.6000382729        3.1799998613       -8.1694203514
 H        -0.9197542214       -0.0107515157       -9.5094639024
 H        -2.3723374068       -1.0795902480       -9.2133879388
 H        -1.3017036928       -0.8040715435       -7.9416198311
 H        -8.2461803442        3.0826439561       -4.6651298391
 H        -7.6860236544        1.5944870356       -5.4618874036
 H        -6.9395238934        2.9745621072       -6.1269945727
 H        -5.3268217365        3.7192841943       -2.6769694716
 H        -7.0109579106        4.5406269510       -3.1461711301
 H        -5.5897078399        4.4202884943       -4.1413225294
 H        -6.8202569232        4.3515098788        3.2134901876
 H        -8.4567795018        4.6187242851        3.1335408428
 H        -7.5929119499        4.6828531900        1.7180526215
 H        -8.3491293557        0.9604640128        4.0285153918
 H        -7.6792410771        2.3521239887        4.8369284407
 H        -6.6452661784        1.3736108573        3.5961601158
 H       -15.5155459440       -0.3476225038        3.6266713454
 H       -14.5713482666        0.5035323743        4.8265727794
 H       -14.1351732285       -1.2541615125        4.3174191438
 H       -14.1030291786       -1.3500712836        1.4451163363
 H       -13.5486961493        0.0803839591        0.5603028183
 H       -15.1196878792        0.0962875613        1.1422831404
 H       -13.3481955635        5.1469605771        6.8113213991
 H       -13.0881010034        6.8202197250        7.1923081386
 H       -12.0715512281        5.8968247653        6.1140025087
 H       -15.8276216607        6.7131679353        6.6721802118
 H       -15.7734271619        5.1278747538        6.5757405401
 H       -16.3999757545        5.8880713021        5.1226227291
 H       -11.1294389267        8.9919636265       -0.2370811784
 H       -11.9740390427       10.5029382266       -0.4390157351
 H       -12.2230630209        9.2615394553       -1.5485059496
 H       -14.1593193932       10.5589861872        1.2781953715
 H       -15.3546080198        9.3632177582        1.1504979833
 H       -14.9386465607       10.0385803559       -0.2891892395
 Na      -12.2188590158        4.7267599144        1.4615397071
