117

 C       -12.4085394622        9.2072686142       -0.1300915989
 C       -11.9499066319        7.8807180029        0.4478883820
 O       -10.9174885545        7.7602031043        1.0957354698
 C       -12.9572344707        6.6794814867        0.3103936741
 C       -12.2186020745        5.6508890065       -0.6292813660
 O       -12.2094250732        5.9866537939       -1.7876235087
 C       -11.4970594918        4.3772743662       -0.1002743721
 C       -10.4816251710        3.7143131748       -1.1082506860
 C        -9.3788335756        4.5887430402       -1.6732724491
 O        -8.8426838965        5.4828957119       -1.0052095886
 C        -8.6157722547        4.1306395619       -2.9012683479
 C        -7.7977631087        2.7862423103       -2.4742381749
 O        -8.0864475952        2.2110498674       -1.4633867578
 C        -6.8117039087        2.1891495902       -3.4879876274
 C        -7.1198787463        0.8056473121       -3.7850447185
 C        -8.4079410973        0.7037906541       -4.5669161548
 O        -8.5952308746        1.4410344864       -5.4807753608
 C        -9.3859092770       -0.5400260725       -4.3617030290
 C       -10.7591062816       -0.0417902678       -3.8008544702
 O       -10.7575058909        0.8312290621       -2.9307186026
 C       -12.1185300008       -0.7107760102       -4.1311709186
 C       -13.1113775363       -0.5625054211       -2.9654622716
 C       -12.6265104085       -1.0145255856       -1.6113965385
 O       -11.6849747358       -1.7662539396       -1.6265405029
 C       -13.2996264053       -0.6200455688       -0.2460240144
 C       -12.4073061364        0.1924047808        0.7759387993
 O       -12.8794956178        1.2577506121        1.2121489245
 C       -11.0162908942       -0.2516714841        1.2192941591
 C       -10.5838395882        0.2249852408        2.6082859219
 C        -9.9767654344        1.6429272297        2.6330476198
 O        -9.1675173593        1.9780980480        1.7879173714
 C       -10.5207763780        2.6242837910        3.7816580499
 C        -9.6712820735        3.9862640022        3.5404807729
 O       -10.1881683980        4.9981494848        3.0696208599
 C        -8.1838841446        3.9659335785        3.7968091089
 C        -7.6025070745        5.1888337338        4.5032653647
 C        -7.2625115843        6.2627375680        3.3662801195
 O        -6.8540814811        5.8626775049        2.2706724489
 C        -7.0518119541        7.7344466421        3.7589053642
 C        -7.4214267742        8.6689101222        2.4440074234
 O        -8.0540994240        8.2332852935        1.5036994232
 C        -6.6454307586        9.9579835047        2.4317538775
 C        -8.0839748215        8.2411310533        4.8623240779
 C        -5.6004545201        7.8456687144        4.2674481560
 C       -12.0051765407        2.8105944043        3.5621521380
 C       -10.1672376442        2.1775634820        5.1970346017
 C       -14.6241930373        0.1756455109       -0.4510170692
 C       -13.6433721080       -2.0547795275        0.3272222216
 C        -9.6223775872       -0.9856648387       -5.8402071717
 C        -8.8965027936       -1.6868866726       -3.4808823915
 C        -9.5242883064        3.7562742681       -4.1042193555
 C        -7.5649319402        5.3173717139       -3.2567237612
 C       -13.0512781690        6.1972881850        1.7358032060
 C       -14.3160800313        6.9944785058       -0.2069718252
 H       -11.7871359845       10.1288183002        0.1717569620
 H       -13.4702252030        9.4498000097        0.1697544350
 H       -12.5585805991        9.0943091967       -1.2371348051
 H       -12.2081461208        3.6521803241        0.2554208122
 H       -11.0214719112        4.7172819160        0.8258315233
 H       -11.0383047232        3.3919278813       -2.0430171880
 H       -10.0726378061        2.8456457583       -0.5596945811
 H        -5.7990202040        2.3304075443       -3.1312573237
 H        -6.7568723627        2.8284159733       -4.3924893100
 H        -7.1850345398        0.2125576350       -2.8296546714
 H        -6.2949594440        0.4261813172       -4.3561165590
 H       -12.0725441880       -1.7733913312       -4.3622749450
 H       -12.5382779556       -0.3049545157       -5.0855318632
 H       -14.0065834670       -1.1384549824       -3.0989338695
 H       -13.4560479214        0.4909518507       -2.8312493324
 H       -10.3398667968        0.0851326720        0.4585994754
 H       -10.9572877477       -1.3504637170        1.2009682906
 H        -9.8292433502       -0.4638338339        3.0914814473
 H       -11.4076284063        0.2847894225        3.3228204317
 H        -7.6779881343        3.8115033905        2.8187510659
 H        -7.8671898741        3.0352858185        4.2989881043
 H        -6.5646732661        4.9153823853        4.8643838936
 H        -8.3315108386        5.5905490744        5.2692619580
 H        -5.5472478723        9.9643319324        2.3057173317
 H        -6.7999397231       10.4714754649        3.4036352726
 H        -6.9904988506       10.6073981413        1.6701823971
 H        -8.0591945817        7.5445645052        5.6933771884
 H        -9.1007758677        8.3691466108        4.5180256667
 H        -7.7992698040        9.2469764932        5.1331385268
 H        -5.4836750895        7.1554272887        5.1469706009
 H        -5.3356272424        8.8429047892        4.6574546825
 H        -4.8410547341        7.6523038901        3.4899766615
 H       -12.0596134893        3.1246017826        2.5451899865
 H       -12.4029971011        3.6709730753        4.1922347317
 H       -12.6042042101        1.9119494281        3.7104690027
 H       -10.4687525315        2.9507646997        5.9040172892
 H        -9.0908670103        2.1017727097        5.3735437796
 H       -10.6900986713        1.2056666765        5.3343604471
 H       -14.3804083007        1.2262952536       -0.6603006785
 H       -15.1292344814        0.2376451036        0.4570863097
 H       -15.2872875062       -0.2767374343       -1.1990335409
 H       -12.7160138983       -2.6742901563        0.2381778700
 H       -14.2688686839       -2.5291926044       -0.3933566165
 H       -14.1005766476       -1.9543508928        1.3189541048
 H        -8.6499898576       -1.2866965087       -6.3706727802
 H       -10.2089754114       -0.2862748230       -6.4745552727
 H       -10.1588199814       -1.9149290178       -5.8668463559
 H        -8.8026720630       -1.3617053530       -2.4411541426
 H        -7.9069942856       -2.0752518857       -3.7707721280
 H        -9.4704533720       -2.5659784532       -3.4571881492
 H       -10.0442261375        4.6656309654       -4.4123813692
 H       -10.2882588359        2.9883895873       -3.9279740833
 H        -8.8838595019        3.4235403480       -4.8792398382
 H        -7.2015819417        5.2410401499       -4.2463811261
 H        -6.6715469518        5.1499409368       -2.5727754076
 H        -8.0270543360        6.2753262966       -3.0038885224
 H       -12.0832569345        6.0055856094        2.1368725756
 H       -13.7780226210        5.3341146304        1.7447286528
 H       -13.4677729554        6.9917582131        2.3083048007
 H       -14.2095728124        7.3094791949       -1.2596302975
 H       -14.9185766220        7.6775111189        0.4044640031
 H       -14.9240138165        6.0422484273       -0.1733842817
 Na       -9.1501266081        6.1943292097        1.1907703059
