117

 C       -15.3023850772        7.0816104598       -0.3554360866
 C       -13.8519695800        7.3272494436       -0.0409731938
 O       -13.0264311681        6.4626939875       -0.2899785696
 C       -13.3339030665        8.7053337475        0.5596194237
 C       -12.7276693210        8.4520669956        2.0034921080
 O       -12.0948425155        7.4594889780        2.2663090814
 C       -12.9742818597        9.3770520465        3.1440058652
 C       -13.1109350122        8.6392783789        4.4824851788
 C       -14.2664060356        7.5596280404        4.4557086815
 O       -15.2326253715        7.8314579403        3.7931574360
 C       -14.2679697227        6.1463399364        5.3313466778
 C       -13.9960050692        5.1140545165        4.1657679362
 O       -12.8409081346        5.2692196163        3.6840678642
 C       -14.9303091052        4.1370752337        3.4377320861
 C       -14.6770924970        2.6248758531        3.8262167159
 C       -13.8209174931        1.8706704651        2.7011599542
 O       -13.2912916166        2.4741967833        1.7382346058
 C       -13.7387893598        0.3036086383        2.7208058780
 C       -12.0692436359       -0.2171610663        2.7491223604
 O       -11.7460820791       -1.2735456517        3.1278218665
 C       -11.0107457372        0.7516135189        2.1865196670
 C       -10.5002302543        1.8429255713        3.2167470908
 C        -9.5920257017        2.8005450828        2.4369811745
 O       -10.0646548630        3.6138273009        1.6401492922
 C        -8.0998892706        2.6211874180        2.5196252639
 C        -7.6472362387        1.7808655820        1.1231906068
 O        -7.8255184075        0.6254364933        1.1740946250
 C        -7.4828445686        2.4744107562       -0.1946511838
 C        -6.8297949722        1.5534579232       -1.2617899166
 C        -7.4870016401        2.0340285577       -2.4947366925
 O        -8.6504501251        2.1947209762       -2.6393458860
 C        -6.5584856996        2.6484857063       -3.7500691788
 C        -5.1248195778        1.8897118930       -3.8813935380
 O        -4.4412719715        2.0432842847       -2.9128294702
 C        -4.7492708804        0.9304710040       -5.0711021103
 C        -4.1014654068        1.5096976215       -6.3285041969
 C        -3.4105810807        0.3147824004       -7.1909497758
 O        -3.1542917956       -0.7650704642       -6.7264373689
 C        -2.6421384374        0.7354948350       -8.5247308260
 C        -3.8001352197        0.9655959014       -9.4942657158
 O        -4.6447077235        1.7978661631       -9.2775701217
 C        -4.1192470034       -0.0053412290      -10.5089886816
 C        -1.8560149202        2.0526141181       -8.1644191139
 C        -1.6490678682       -0.2949200080       -8.8887012279
 C        -7.3906853469        2.5372373808       -5.1075271909
 C        -6.0649019537        4.1318071409       -3.4415926919
 C        -7.5199710500        4.1255894102        2.4638300123
 C        -7.5324918836        1.9344679700        3.7901488463
 C       -14.4611198979       -0.2830857431        4.0321835400
 C       -14.2648066168       -0.2796774376        1.3842787433
 C       -13.1745903250        6.1250395886        6.4028972767
 C       -15.6291761011        6.0925654023        6.0439805013
 C       -12.2993820768        9.1530989915       -0.3953044626
 C       -14.4208689613        9.8495142966        0.5765122144
 H       -15.4023567743        6.1381150888       -0.0225518299
 H       -15.4942554543        7.0709760456       -1.4188474647
 H       -15.9673522836        7.8402897353        0.0312184499
 H       -13.7656557915       10.1346699323        3.0891625964
 H       -12.0592189347        9.9915575451        3.1684716711
 H       -13.4767916900        9.3658757290        5.1699820532
 H       -12.2582652725        8.2069243375        4.8687139095
 H       -14.9477825105        4.3660917063        2.3269296560
 H       -15.9127960427        4.4392932676        3.8743247468
 H       -15.5398502542        1.9811995010        3.9710080806
 H       -14.2514731359        2.6870605215        4.8239512854
 H       -11.4873051023        1.3462546607        1.3788211550
 H       -10.1919776014        0.2015143973        1.6300578271
 H        -9.9955491762        1.3358359967        3.9898505043
 H       -11.4043063049        2.3902080676        3.6470624419
 H        -7.0006834458        3.4546305861       -0.2666571382
 H        -8.5387421435        2.6243677717       -0.5393593452
 H        -7.2372610484        0.5617231911       -1.0859047027
 H        -5.7529405647        1.6636310670       -1.2412155285
 H        -5.6960827155        0.5355185884       -5.2780422181
 H        -4.0359529281        0.1378463970       -4.8275938753
 H        -3.1283308604        1.8652557400       -5.9866999805
 H        -4.7176799381        2.1877477569       -6.8544056086
 H        -5.1185661927        0.2610294313      -10.8630905656
 H        -4.1566256077       -1.0339266765       -9.9989027862
 H        -3.4508430177       -0.0480798931      -11.3773252666
 H        -0.8376271189        1.9516419830       -8.6411557067
 H        -1.6553860876        2.0857111900       -7.0735649505
 H        -2.3508978718        2.9533773451       -8.6579088714
 H        -0.9298109689        0.1526692294       -9.5368489667
 H        -2.2169742442       -1.2211069408       -9.2285082408
 H        -1.1007653686       -0.6484696869       -7.9709851735
 H        -8.3976470589        2.8563607969       -4.9982037261
 H        -7.4677550050        1.4071386310       -5.2582864034
 H        -6.8060069915        2.8079262547       -6.0789357527
 H        -5.2749139134        4.0475846640       -2.7513572693
 H        -6.9370491101        4.7348972499       -3.1607574987
 H        -5.5536605440        4.6358869303       -4.2653181629
 H        -6.3821264162        4.1640094643        2.4985341212
 H        -7.7935106635        4.7124748256        3.3391019011
 H        -7.8410253450        4.7658900513        1.6241920824
 H        -8.0224241702        1.0133749889        4.1710727594
 H        -7.7228971073        2.6056319453        4.5996198884
 H        -6.4367471916        1.7344886330        3.7267363269
 H       -15.3696505148       -0.7722307321        3.5997997927
 H       -14.8946205918        0.4373394831        4.6191346235
 H       -13.8935784471       -1.0286116253        4.5665541898
 H       -14.2476698562       -1.4058348406        1.4788433343
 H       -13.7559606523       -0.1322492851        0.4417455583
 H       -15.2569669691        0.0451597427        1.0666790103
 H       -13.2534899448        5.4234614635        7.2123596083
 H       -13.2425243167        7.1429637683        6.8138740715
 H       -12.1401261721        5.8576621741        6.0558034534
 H       -15.8017235722        7.0550948596        6.5656706658
 H       -15.7686972463        5.4161141471        6.9074623579
 H       -16.4518893564        5.8889717857        5.3525385932
 H       -11.3022001717        8.8108471038       -0.2510064864
 H       -12.1568295966       10.2477739940       -0.4829271022
 H       -12.5258034435        8.9523318075       -1.4548792313
 H       -14.0684414660       10.8431540524        0.8975233892
 H       -15.2154067064        9.6305974982        1.3079856196
 H       -14.9920550158        9.8145971930       -0.3220840468
 Na      -12.1338338404        4.6450481511        1.4208355666
