117

 C       -13.4125032757        8.9487423136        0.1821508568
 C       -12.5442787231        7.7572214735        0.3828694164
 O       -11.4668594165        7.7977643770        1.0390320414
 C       -13.2241949434        6.3747362120       -0.0506818474
 C       -12.0390508789        5.5364826870       -0.9085979943
 O       -11.6100005196        6.0485327919       -1.9183830837
 C       -11.4046939061        4.2793156188       -0.3499254941
 C       -10.2934261330        3.6224341633       -1.2565963093
 C        -9.1013919804        4.5233180584       -1.6335207924
 O        -8.7669336915        5.4853621422       -0.9565597357
 C        -8.3855343973        4.3007208727       -3.0348355227
 C        -7.6229199767        2.9543314700       -2.8830971069
 O        -7.4433624711        2.5308645904       -1.7403777832
 C        -7.0111680779        2.1298715789       -4.0462455438
 C        -7.4170545408        0.5674554851       -3.8785505504
 C        -8.5204676902        0.1096219534       -4.8791776772
 O        -8.6204019760        0.6102480745       -6.0048749323
 C        -9.5268654225       -0.9757856001       -4.5478917676
 C       -10.5342119567       -0.3684190380       -3.5043561433
 O       -10.3025743480        0.6488396902       -2.9072806548
 C       -11.9043907127       -1.1040858782       -3.3323438268
 C       -12.7538171440       -0.5886298022       -2.1223088272
 C       -12.3178104706       -1.1968192147       -0.8044436376
 O       -11.5892895095       -2.1760513308       -0.7502363253
 C       -13.1137757201       -0.6024909004        0.4466637418
 C       -12.2281713928        0.2582680034        1.4391333299
 O       -12.3610699310        1.4415794413        1.5679548752
 C       -11.0973064699       -0.5055062378        2.1978253146
 C       -10.7097783981        0.1651995247        3.5027950916
 C       -10.0211164417        1.5788532918        3.0563499131
 O        -9.3007526911        1.6284380064        2.1011982248
 C       -10.2502927508        2.8253434267        4.0721124074
 C        -9.4471748082        4.0604895218        3.4441953305
 O       -10.0581328091        4.9889717137        2.9163969414
 C        -7.9094119726        4.1461175360        3.5396999125
 C        -7.5575144199        5.5488587784        4.0796822532
 C        -7.3959563290        6.6263512627        2.9567803346
 O        -7.3710962579        6.2458430363        1.8053169935
 C        -7.1294189017        8.1627435580        3.1987866262
 C        -7.6889023984        9.0917431449        1.9978848532
 O        -8.7232181473        8.7840202710        1.3884681742
 C        -6.8403469498       10.2669048965        1.6043462177
 C        -7.9503157119        8.6569473081        4.4392780061
 C        -5.6488432753        8.3809849418        3.4654522296
 C       -11.7351457346        3.1814535980        4.1621517317
 C        -9.7533820526        2.3527542640        5.4563510321
 C       -14.2487513849        0.3097533823       -0.1150210923
 C       -13.7488120828       -1.7781126239        1.2618559263
 C       -10.2787990299       -1.5722930969       -5.7344649100
 C        -8.8433685435       -2.1217395864       -3.6714770107
 C        -9.4802990250        4.2390951533       -4.1267587319
 C        -7.4546640548        5.4473014867       -3.4035907928
 C       -13.5367159932        5.6910787250        1.2408637436
 C       -14.3627353583        6.5441185556       -1.1451572803
 H       -13.0093026642        9.8522024672        0.4001559689
 H       -14.3253587888        8.7863492588        0.7737542106
 H       -13.6761189934        9.0517216938       -0.8423799084
 H       -12.0873484269        3.4338750561       -0.1965573455
 H       -11.0041569064        4.5665429669        0.6497249123
 H       -10.6561505358        3.1338281957       -2.1823309738
 H        -9.9659594265        2.7850854286       -0.7128547648
 H        -5.9495828780        2.1381113637       -3.9413407417
 H        -7.4321856541        2.4979633038       -5.0094626600
 H        -7.7607844471        0.3166109379       -2.8513624859
 H        -6.5394729965       -0.0730567338       -4.0218795209
 H       -11.8283731671       -2.1852792698       -3.2223605872
 H       -12.4934095183       -0.8945098018       -4.2306488921
 H       -13.8028819280       -0.6397019286       -2.3001144046
 H       -12.5025736091        0.5271861901       -2.0411326014
 H       -10.2559015113       -0.6450233299        1.4953340316
 H       -11.4370515927       -1.5407172175        2.4317103728
 H        -9.9475502059       -0.3599454435        4.0449564126
 H       -11.5207212428        0.3838892146        4.2104577948
 H        -7.4343514835        4.0195207588        2.5846178574
 H        -7.6304864335        3.4174802347        4.3256404727
 H        -6.6030473233        5.5479213392        4.5728446278
 H        -8.1466291103        5.9327647562        4.8605688927
 H        -7.4427852533       11.0513331630        1.1182002680
 H        -6.0524610675       10.0262175240        0.8813767328
 H        -6.2917672010       10.7940391165        2.4258255113
 H        -7.7096174406        7.9634701277        5.2258543305
 H        -9.0638563902        8.6763419531        4.4135091270
 H        -7.6222596713        9.6478638301        4.6915932481
 H        -5.4510751340        7.5863773058        4.2174948657
 H        -5.3337379505        9.3565802742        3.8972736540
 H        -4.9437361987        8.2147545501        2.6704256638
 H       -12.1341377844        3.6797605627        3.2586063539
 H       -11.9567011655        3.8780560704        4.9322771433
 H       -12.3194652834        2.2604064913        4.3870352329
 H        -9.6197233911        3.1631253652        6.2373648141
 H        -8.7681695928        1.9927252521        5.2894300238
 H       -10.3543902538        1.6367243239        5.9829294961
 H       -13.8300917411        1.1545288412       -0.5455775130
 H       -14.9566929033        0.6770787484        0.6265360948
 H       -14.8498123156       -0.2145473921       -0.8389345074
 H       -12.9836741286       -2.4835650949        1.5132890710
 H       -14.6121835610       -2.2287643293        0.7356480393
 H       -14.0221929750       -1.3305350844        2.2160426450
 H        -9.6346074347       -1.9449039603       -6.4522076827
 H       -10.8398634340       -0.7328745682       -6.1327471533
 H       -10.9688315958       -2.3601914349       -5.3291363201
 H        -8.6404923319       -1.7771679368       -2.6199742414
 H        -7.9502845767       -2.5881298992       -4.1164793529
 H        -9.6210111151       -2.8814433989       -3.6096052676
 H       -10.2014300572        5.0041394647       -3.9240569159
 H        -9.9604755980        3.3010628454       -4.0955153028
 H        -9.0999597917        4.2950260253       -5.1520466261
 H        -6.7523063401        5.0942568813       -4.1705745021
 H        -6.8961968878        5.8511711402       -2.5991030083
 H        -8.0937231841        6.1863718565       -3.8711976253
 H       -12.6203581549        5.5884537191        1.7918045677
 H       -13.7515440793        4.6916420471        1.0867664344
 H       -14.3157754309        6.2001701599        1.8478433538
 H       -13.9824442446        6.9098774184       -2.1194225440
 H       -15.1871943153        7.2109072761       -0.7313085966
 H       -14.8322875320        5.5596871768       -1.2805059037
 Na       -9.3983347938        6.5457361663        0.9780371897
