117

 C       -13.5184449305        8.9157682967        0.1334850336
 C       -12.6603105526        7.6872269779        0.3332324067
 O       -11.6097693339        7.7749645455        0.9110919165
 C       -13.1189889637        6.2663296910       -0.1520068780
 C       -11.9133122697        5.6209924031       -0.9335830394
 O       -11.5697552991        6.0856632261       -1.9821604220
 C       -11.3188138045        4.3309814770       -0.2986334493
 C       -10.3463307909        3.6773602963       -1.2532012296
 C        -9.1586568930        4.6127190349       -1.7091521386
 O        -8.7312628051        5.4542650452       -0.9364059927
 C        -8.4060193606        4.3325961578       -3.1077655231
 C        -7.6478754519        2.8808546710       -2.8408599390
 O        -7.5385056757        2.5122470319       -1.6810613560
 C        -7.0996133471        2.0792342345       -4.0578419219
 C        -7.5239387136        0.6173581475       -3.8854137501
 C        -8.4905020622        0.1084038921       -4.9688248188
 O        -8.6931827793        0.6532881344       -6.0095825204
 C        -9.5656506818       -1.0657002010       -4.4667363794
 C       -10.5930817431       -0.4047215524       -3.5227328903
 O       -10.2989730127        0.6258572339       -2.9098752582
 C       -11.8201037280       -1.1781210155       -3.3478961064
 C       -12.5861392727       -0.4539823178       -2.1181160770
 C       -12.4076332622       -1.1934681025       -0.7539886847
 O       -11.5836152007       -2.1109259303       -0.6126797543
 C       -13.1416281493       -0.5702503113        0.5142677338
 C       -12.2238603682        0.2226610148        1.4495873333
 O       -12.3092353438        1.4138062826        1.6695644168
 C       -11.1964320910       -0.5926678786        2.3061887538
 C       -10.5840902504        0.2242113587        3.4646163336
 C        -9.9883860313        1.6081442066        3.1261744235
 O        -9.3160777798        1.7888366991        2.1099377407
 C       -10.1894589664        2.8232417817        4.0595192839
 C        -9.4523229986        4.0248501195        3.4647494139
 O       -10.0885872552        4.9040619043        2.8900726177
 C        -7.9388688065        4.1334292766        3.4978183479
 C        -7.5847188476        5.5502248345        4.0110597161
 C        -7.3674804260        6.6264367118        2.9047539458
 O        -7.2688011030        6.2884353569        1.7305835503
 C        -7.1172400760        8.1584002021        3.2481659924
 C        -7.6713867593        9.0675046090        1.9540539262
 O        -8.7979587512        8.9228327577        1.5624013556
 C        -6.8064093346       10.2584627038        1.4931544168
 C        -7.9649730345        8.7305066125        4.4232680868
 C        -5.6536101471        8.3783773910        3.4152491697
 C       -11.6998257501        3.2169150165        4.2111006908
 C        -9.6959081323        2.4555679218        5.5319086263
 C       -14.3020934630        0.3287631125        0.0282536211
 C       -13.7613929274       -1.7787761484        1.3406344277
 C       -10.1480861576       -1.6268727668       -5.7751733035
 C        -8.8008624396       -2.2206584113       -3.6909050193
 C        -9.4543882234        4.2770148310       -4.2368204914
 C        -7.3979057875        5.4167275081       -3.5253970182
 C       -13.5588076577        5.5226643476        1.1636282754
 C       -14.2937822245        6.4377843356       -1.1082113661
 H       -12.8913605588        9.8029550096        0.2258327158
 H       -14.3524435457        8.9955967681        0.7669495817
 H       -13.8029913184        9.0333125240       -0.8375854110
 H       -12.0855671013        3.5756726202       -0.1937630366
 H       -10.8552195543        4.4489703822        0.6858961437
 H       -10.7669964642        3.1601973605       -2.1119831948
 H        -9.9088647977        2.8093546507       -0.6732790494
 H        -5.9741412906        2.0705792589       -4.0561882823
 H        -7.6259255542        2.4068766951       -4.9740659025
 H        -7.8205493854        0.3117394733       -2.9351643826
 H        -6.6184766802        0.0024930014       -4.1307809294
 H       -11.5401636322       -2.1827799483       -3.0302821573
 H       -12.4372982013       -1.2308023302       -4.1725857538
 H       -13.6900919162       -0.5148281851       -2.3462082643
 H       -12.3526907925        0.6574618785       -2.0668431426
 H       -10.4989982793       -0.9920652129        1.5233550322
 H       -11.5919194361       -1.4796805328        2.7805645822
 H        -9.8063739374       -0.2629403647        3.9752413636
 H       -11.3227420102        0.4571225259        4.2733520475
 H        -7.6386475455        4.1490789418        2.4681027901
 H        -7.5020954473        3.3475206780        4.1103760260
 H        -6.7054583862        5.5514553961        4.6384966234
 H        -8.2134154436        6.0225764458        4.7264068786
 H        -7.4296288877       10.9243825211        0.9419347445
 H        -5.9847724667        9.9916892547        0.8142955990
 H        -6.2772440669       10.8998732021        2.2452876206
 H        -7.8080600993        8.0496596752        5.2552574554
 H        -9.0239800086        8.7111020279        4.2559012121
 H        -7.7158814200        9.7708711315        4.6649367674
 H        -5.2636678368        7.6641236169        4.0982876735
 H        -5.3113720149        9.3387560315        3.7213929053
 H        -5.1560019044        8.2284074863        2.4361026383
 H       -12.0905680727        3.7519518430        3.3164707179
 H       -11.7589637784        3.9786469331        4.9466991879
 H       -12.3876869163        2.4550442052        4.5110541051
 H        -9.8970076220        3.1800893225        6.2519612038
 H        -8.5790818034        2.3641911998        5.6210976207
 H       -10.1744297717        1.5581164213        5.9139543096
 H       -13.9666633984        1.2128225454       -0.4810498994
 H       -14.7972584975        0.6976851059        0.9507138129
 H       -15.0522371958       -0.1587014837       -0.5075935907
 H       -13.0408087675       -2.5275159198        1.5232929884
 H       -14.5540276259       -2.1847965557        0.6916609794
 H       -14.1271051550       -1.4417883678        2.2782135294
 H        -9.2847096100       -1.7305970558       -6.4676790136
 H       -10.7875279598       -0.8617112651       -6.1139432752
 H       -10.6066881447       -2.5613665838       -5.6462126971
 H        -8.2007810487       -1.8699717779       -2.8787595973
 H        -8.2217812454       -2.7453687598       -4.4400650002
 H        -9.5601507449       -3.0004466363       -3.2876195071
 H       -10.1199425733        5.1141662571       -4.2466846179
 H       -10.0384009234        3.3741343030       -4.1252973622
 H        -8.9675675487        4.1191946238       -5.1928127863
 H        -6.8783348159        5.1123970413       -4.4452464386
 H        -6.6560019012        5.5992085463       -2.8131767241
 H        -7.9699697967        6.3082593828       -3.6992081389
 H       -12.8269299835        5.4823906046        2.0086746232
 H       -13.8097815493        4.4948056300        1.0029966149
 H       -14.4644053676        6.0857139081        1.4514566754
 H       -13.9945484092        6.8655269203       -2.0793880608
 H       -15.0008554746        7.0887127881       -0.5762199897
 H       -14.8429385048        5.5233923502       -1.2521553142
 Na       -9.4543827255        6.5247582967        1.0943289174
