117

 C       -13.9997315326        8.2515057347       -0.1664229580
 C       -12.9859178050        7.1440473279       -0.1353579991
 O       -11.8483798974        7.4251688450        0.1904850313
 C       -13.4805171507        5.6863310064       -0.5098162530
 C       -12.2883060942        4.9238750983       -1.1879948427
 O       -11.9955853353        5.1858494739       -2.3709991974
 C       -11.4275493352        3.8528813687       -0.4280249931
 C       -10.1475220171        3.2975450326       -1.1465240873
 C        -9.1940066482        4.4306093545       -1.5483900271
 O        -8.9518730462        5.3759140981       -0.7906477957
 C        -8.2881468514        4.2621849070       -2.7719827995
 C        -7.7794516797        2.7478922813       -2.9334040097
 O        -7.8120458121        1.9406780560       -2.0906570391
 C        -7.2456342230        2.3016655322       -4.3874100420
 C        -7.3217222642        0.7742996340       -4.4674370898
 C        -8.7160718540        0.3135281455       -4.9158007500
 O        -9.3551155707        0.9175716950       -5.7466228739
 C        -9.3866785288       -1.0339680848       -4.3854789914
 C       -10.3691022072       -0.5161115678       -3.1737653671
 O       -10.7643203960        0.6488490781       -3.1498952668
 C       -10.9737778664       -1.5191966489       -2.1924578773
 C       -12.1362955746       -0.8979521857       -1.3530985784
 C       -12.2025432256       -1.3252175753        0.1306996622
 O       -11.4454016266       -2.1490132826        0.5382042776
 C       -13.1315078207       -0.4931089591        1.1709651312
 C       -12.1607950775        0.4174230918        2.1050916751
 O       -12.3743330420        1.6260717763        2.1445480999
 C       -11.1474028908       -0.2658024995        2.9343109964
 C       -10.5450741715        0.6566181773        4.0591257787
 C       -10.0200155558        1.9328444278        3.3742429080
 O        -9.5702872881        1.8354236788        2.2741486441
 C        -9.9579713584        3.4168700258        4.1132467560
 C        -9.3272725915        4.5434239577        3.2821137414
 O        -9.9574143512        5.4471342772        2.7614547577
 C        -7.8464818611        4.3722168382        2.9652682217
 C        -6.9025582625        5.5959597525        3.2543045437
 C        -7.0399335075        6.7676787297        2.2040079428
 O        -7.2823356139        6.4466314683        1.0498742432
 C        -7.0527404726        8.3315766722        2.6053560104
 C        -7.7924190623        9.3173066365        1.6314440804
 O        -8.6351235431        8.8996390598        0.8698119768
 C        -7.3744474277       10.7268089362        1.6778057016
 C        -7.6683419194        8.5635961164        4.0747894065
 C        -5.5197222486        8.5999203621        2.7067054376
 C       -11.5395255139        3.7626752539        4.2904760534
 C        -9.3717332053        3.2699446243        5.4743955799
 C       -14.2426438756        0.3585063177        0.4870267040
 C       -13.8430319364       -1.5715420073        2.0027550735
 C       -10.2679524884       -1.6406214240       -5.5301281863
 C        -8.3783088029       -2.0173309035       -3.8450931462
 C        -9.0751618058        4.6710686064       -3.9914198403
 C        -7.0325457546        5.2692831591       -2.6048514822
 C       -13.7956904360        5.0428608205        0.8316827852
 C       -14.6247772264        5.6151942588       -1.5427085002
 H       -13.6141020545        9.1918355428        0.2777734333
 H       -14.9632747267        8.0594377652        0.2874155066
 H       -14.3343575900        8.3100390221       -1.2598311741
 H       -11.9860148826        2.9403977851       -0.2387784172
 H       -11.2102899610        4.1778708439        0.6082369076
 H       -10.4398565277        2.6292368532       -1.9701363441
 H        -9.5867277304        2.7173960614       -0.3868824329
 H        -6.2711047404        2.7345418249       -4.5959520516
 H        -7.8191126280        2.7849960731       -5.1957894926
 H        -7.0546529105        0.3577068686       -3.5224269634
 H        -6.6315811932        0.3687551253       -5.2446312015
 H       -10.1859050015       -1.8867956396       -1.4736918920
 H       -11.2694791737       -2.3803654179       -2.7866357354
 H       -13.0692877666       -1.2111998496       -1.7748701298
 H       -11.9487442948        0.2168643804       -1.5077624046
 H       -10.3354499604       -0.5106390152        2.2471017157
 H       -11.4294696452       -1.1795282591        3.3764278538
 H        -9.6718679777        0.1893841799        4.4963031424
 H       -11.3468252227        0.8776642868        4.8469341762
 H        -7.7839230477        3.9634997464        1.9774575644
 H        -7.3980310419        3.6090155804        3.6379058270
 H        -5.8732177131        5.1291210850        3.0709550237
 H        -7.1281862521        5.9247727311        4.3082445236
 H        -8.0987958264       11.4172639374        1.2239178586
 H        -6.4457715026       10.9513094522        1.1197716786
 H        -7.1358593178       11.0635486230        2.6959279501
 H        -7.1214122434        8.0060239448        4.8576327228
 H        -8.7061335749        8.2864786377        4.1311770994
 H        -7.6266381389        9.6419680872        4.3381822661
 H        -5.0718553794        7.7024083769        3.0243781098
 H        -5.2816500710        9.4406952393        3.2947027904
 H        -5.1071453829        8.6712544249        1.6778014169
 H       -11.9951350638        3.8679370190        3.3080502091
 H       -11.8105326294        4.6206208138        4.8946714713
 H       -12.0073015241        2.8810705877        4.6595958134
 H        -9.3584212191        4.1531773556        5.9787161975
 H        -8.3463114078        2.7828694338        5.4970326968
 H        -9.9622998521        2.7304181243        6.2110987238
 H       -13.9104232866        1.2921662442        0.0437601719
 H       -15.1029208183        0.5529263368        1.1378886969
 H       -14.6261797248       -0.2043140854       -0.3115864146
 H       -13.1811630444       -2.1540515467        2.5934828409
 H       -14.3557140638       -2.1934807353        1.2827478211
 H       -14.6046499169       -1.2681409895        2.6710867280
 H        -9.5593311752       -2.0761215769       -6.2898525929
 H       -10.7485608888       -0.8151614517       -5.9934110624
 H       -10.9335507408       -2.2832419701       -5.0846793936
 H        -8.0214896166       -1.7250453674       -2.8764167391
 H        -7.5392579948       -2.0957723976       -4.5159746243
 H        -8.9974881252       -2.9783342459       -3.7134602528
 H        -9.6441302409        5.5523087258       -3.7925075535
 H        -9.7942037092        3.8931887432       -4.2378108660
 H        -8.5138346895        4.7951334320       -4.8970789259
 H        -6.5592385212        5.4914609539       -3.5363574932
 H        -6.3152050098        4.8985701118       -1.9158449962
 H        -7.3342074785        6.2481326500       -2.3273079258
 H       -12.9525662886        5.0357565914        1.5578623949
 H       -14.0045261130        3.9501218826        0.8107846385
 H       -14.6767327159        5.4680791693        1.3006422068
 H       -14.2655527353        6.0097577250       -2.5058170372
 H       -15.4399278758        6.2678962447       -1.2189577481
 H       -14.8811175180        4.5984974495       -1.7696135513
 Na       -9.5909223018        6.7751074531        0.7339390042
