117

 C       -13.9435572313        8.1608332833       -0.3594334690
 C       -12.9610990576        6.9933668031       -0.2870862213
 O       -11.8697311824        7.2614251798        0.1761817863
 C       -13.4027862898        5.5279568850       -0.5074184537
 C       -12.2039493935        4.6787755842       -1.2348493760
 O       -11.9718903485        4.9767195479       -2.3488216408
 C       -11.3513750988        3.7719394495       -0.3973852168
 C       -10.2201211200        3.1750933126       -1.2006806296
 C        -9.3282175447        4.3250873431       -1.6122315001
 O        -9.2238292334        5.2861030390       -0.9031145355
 C        -8.3589029251        4.2078047261       -2.7793842679
 C        -7.8828344500        2.6956958817       -3.0409069045
 O        -7.8166015299        1.9713851325       -2.0201447258
 C        -7.2956883185        2.2076038428       -4.4302182218
 C        -7.3846112987        0.6910823611       -4.5220491471
 C        -8.8268644270        0.3318159808       -4.8594657648
 O        -9.5236519845        1.1141260315       -5.4562147792
 C        -9.4798851971       -0.9716024212       -4.3821697704
 C       -10.3962271870       -0.4616535509       -3.2168539804
 O       -10.7251585013        0.6882412559       -3.1719549098
 C       -10.7768285298       -1.4165712034       -1.9563811605
 C       -11.8353299294       -0.6955995128       -1.1316736349
 C       -12.0127740074       -1.3102400565        0.2831584773
 O       -11.3049331396       -2.1823461138        0.8251224050
 C       -13.0482179584       -0.5380168200        1.2331533359
 C       -12.3114751883        0.3898208918        2.1496741101
 O       -12.5401209207        1.5758353464        2.0764958548
 C       -11.2610750447       -0.1490709341        3.1262542190
 C       -10.7487777761        1.0165427604        4.0171561949
 C        -9.9884541096        2.1772242297        3.2165831258
 O        -9.2996494199        1.9395453944        2.2098666234
 C       -10.0439864585        3.4838209677        3.9953526131
 C        -9.2277422522        4.5680858570        3.2629620840
 O        -9.8311495139        5.5893096599        2.9308246967
 C        -7.7696853330        4.3990524739        2.9133752256
 C        -6.9585117609        5.7150110203        3.1121528632
 C        -7.0353894488        6.8486746808        2.0722418603
 O        -7.1378497279        6.6353674134        0.9126855906
 C        -7.0103766936        8.3690643122        2.6023599371
 C        -7.7529028518        9.2482340411        1.6087819291
 O        -8.5484264568        8.8359332296        0.7907781825
 C        -7.5121394683       10.7810105011        1.7536544015
 C        -7.6139139893        8.5629330187        4.0213203166
 C        -5.5280964911        8.6369917863        2.5864308265
 C       -11.4925872789        3.8956054834        4.1852269315
 C        -9.3799433763        3.2475368485        5.3425154007
 C       -14.0016722489        0.3065689396        0.4182498250
 C       -13.7608848801       -1.6087450431        2.1119117206
 C       -10.2565479722       -1.6620183401       -5.5600434999
 C        -8.4802486946       -2.0430099826       -3.7440797897
 C        -9.0328997548        4.7519187362       -4.0718196769
 C        -7.0668933534        5.0759390464       -2.5345754879
 C       -13.8658713112        4.9413962909        0.8001721935
 C       -14.6914689514        5.4950780238       -1.4417413450
 H       -13.5503870471        8.9761004504        0.2916391525
 H       -14.9224601058        7.8914192678        0.0953723714
 H       -14.2381223026        8.4490582869       -1.3187646046
 H       -11.9117612728        2.9952366880        0.1788855842
 H       -10.9739458642        4.4131043369        0.4019596939
 H       -10.6765048132        2.6656316659       -2.0517430425
 H        -9.5626424747        2.5374561404       -0.6421544879
 H        -6.2640649079        2.5379787250       -4.5283743318
 H        -7.7363262528        2.7870997971       -5.1972546764
 H        -6.9646391484        0.2735342606       -3.5496833444
 H        -6.7164728164        0.3647802518       -5.3206815575
 H        -9.9799017824       -1.7744148087       -1.3036377759
 H       -11.2532508684       -2.3813565742       -2.2821810056
 H       -12.7733571875       -0.6934991814       -1.7187307544
 H       -11.5012630886        0.2677188041       -0.9071159214
 H       -10.3834049518       -0.6959475494        2.7720985809
 H       -11.7357850323       -0.8631389916        3.8706216524
 H       -10.0050973109        0.5841094431        4.7325856581
 H       -11.5755930022        1.4230640188        4.5412750731
 H        -7.7891705693        4.0263676049        1.8391405431
 H        -7.2901694365        3.6045708275        3.4904649349
 H        -5.9282709408        5.5002594367        3.1043661559
 H        -7.3825607664        6.0805548559        4.0194760181
 H        -8.0015006735       11.3839649053        1.0272398013
 H        -6.5030215260       11.1344616216        1.6400583706
 H        -7.8069018230       11.1058035977        2.7589194939
 H        -7.0682862919        7.8775523024        4.6456360012
 H        -8.6824531161        8.2594810852        4.0876318915
 H        -7.5482265841        9.5632309504        4.3977970370
 H        -5.1262221663        8.0147143786        3.4200303768
 H        -5.2547168324        9.7027775774        2.7236254013
 H        -5.1467908566        8.2442431019        1.6677670921
 H       -12.2569357731        3.5113344980        3.4914082468
 H       -11.5306404875        4.9694057428        4.1413503950
 H       -11.7416181802        3.5949601883        5.2193564854
 H        -9.2402451629        4.0751048064        6.1221891051
 H        -8.4599789171        2.7611180021        5.1585320229
 H        -9.9531463213        2.5924993914        5.9964308048
 H       -13.5157138632        0.9189229030       -0.3503523348
 H       -14.6564328040        0.9388284138        1.0346441576
 H       -14.7126872905       -0.3826389698       -0.1445654148
 H       -13.2210288093       -2.5242528653        2.2938828618
 H       -14.7168043090       -1.8382973443        1.6420134638
 H       -13.9694972356       -1.3041555945        3.1523729304
 H        -9.5012366727       -1.9541778841       -6.2495911155
 H       -10.9093329323       -0.9023621069       -6.0444032383
 H       -10.8220465459       -2.5571412557       -5.0980373810
 H        -7.8073536946       -1.6298020743       -2.9829724224
 H        -7.8771546665       -2.4162230281       -4.5734622858
 H        -9.0373031442       -2.8201123690       -3.3287353294
 H        -9.5417285761        5.7278081117       -3.9502021693
 H        -9.7973664846        4.0645181233       -4.4143747402
 H        -8.3359630812        4.7328729644       -4.9324757746
 H        -6.2804265388        4.8368011520       -3.2889911450
 H        -6.6317210666        4.8703426183       -1.5575106941
 H        -7.1763920930        6.1585303972       -2.7468598317
 H       -13.0425060440        5.0236345051        1.4955674477
 H       -13.9436614234        3.8914247315        0.8780386996
 H       -14.7900948503        5.4032427150        1.2332730814
 H       -14.4678669377        5.7970408115       -2.4398919844
 H       -15.4822790600        6.1163148049       -1.0401018011
 H       -15.0781009107        4.4687311163       -1.4791904159
 Na       -9.8099925166        6.7329905445        0.7464590677
