117

 C       -13.9560263995        8.1369256974       -0.4553882040
 C       -13.0062218529        6.9975408818       -0.2116389907
 O       -11.8785106920        7.2239794521        0.1553481817
 C       -13.4940717301        5.4448539330       -0.5292583675
 C       -12.2832299879        4.7006422059       -1.1573459323
 O       -11.9720650206        4.8455505718       -2.3342362665
 C       -11.3712318031        3.6578528980       -0.3801459208
 C       -10.2334639281        3.1863104466       -1.2711274526
 C        -9.3315935628        4.3661011174       -1.6425004943
 O        -9.2969559278        5.3937916692       -0.9516891723
 C        -8.3329892007        4.1700485792       -2.8876935778
 C        -7.8386197330        2.6404944815       -3.0384098248
 O        -7.7849969582        1.9657899011       -2.0651183983
 C        -7.1642342814        2.2416833756       -4.2754763454
 C        -7.3992957944        0.7218526125       -4.5374544270
 C        -8.8789442008        0.3163318785       -4.9047663678
 O        -9.6116169303        1.1206846151       -5.4403505976
 C        -9.4868762916       -1.0037296262       -4.3026801481
 C       -10.3916287788       -0.4747670055       -3.1260615398
 O       -10.8653983058        0.6571807484       -3.1169817482
 C       -10.6532450452       -1.3757065510       -1.9334536573
 C       -11.6815794932       -0.6497968567       -0.9635706477
 C       -11.9197393660       -1.2508637265        0.3679762553
 O       -11.2336725220       -2.1409662633        0.7895971073
 C       -13.0881521529       -0.6154326692        1.2101204598
 C       -12.2651364265        0.4793255047        2.1754658336
 O       -12.5536339851        1.6435962289        2.0562299632
 C       -11.3111945778       -0.0247119163        3.1877867495
 C       -10.6818106174        1.0487500065        4.0391058581
 C        -9.9369110073        2.2246795767        3.2327930668
 O        -9.2669731574        2.0011945999        2.2624590929
 C       -10.0435738670        3.5974753055        3.9852432728
 C        -9.2102959934        4.6708099434        3.0882087132
 O        -9.7037576798        5.7663201110        2.8503150164
 C        -7.7509505815        4.4296192611        2.7874168090
 C        -7.0658060979        5.6991321867        3.1526304225
 C        -7.1449645442        6.8246585745        2.0465714148
 O        -7.1571201408        6.6027247601        0.8447538159
 C        -6.9453191277        8.2954409782        2.5759234658
 C        -7.8277768398        9.2369845527        1.6122509950
 O        -8.6254512947        8.8074917967        0.8037071936
 C        -7.6004150126       10.7469515794        1.7164945176
 C        -7.5739318223        8.5450258227        3.9812379397
 C        -5.3747351399        8.7333497695        2.5945519039
 C       -11.5095520739        4.0272920451        4.2022512725
 C        -9.2859549381        3.3018104043        5.3597482144
 C       -14.0865215810        0.1555912988        0.3404555136
 C       -13.8148956625       -1.6723668847        2.1044757691
 C       -10.3750847196       -1.6752388118       -5.4330767208
 C        -8.4531765080       -2.0087116262       -3.7481965552
 C        -9.1577788062        4.7393307837       -4.1181488785
 C        -7.0561051809        4.8731776960       -2.4911557172
 C       -13.8369225355        4.8550058814        0.8491272492
 C       -14.6916142202        5.3297604321       -1.5323059420
 H       -13.5032731557        9.0622268595       -0.0944841445
 H       -14.8887921680        8.0770035457       -0.0552488813
 H       -14.1498312260        8.1322090485       -1.4912281042
 H       -12.0232956008        2.8630475044       -0.0588233268
 H       -10.9412146644        4.0364212016        0.5545939380
 H       -10.7321313435        2.9314022306       -2.2640604008
 H        -9.5962563275        2.3997425949       -0.8777392746
 H        -6.1029005085        2.4863341351       -4.2460956398
 H        -7.4749882533        2.9595410208       -5.0999589728
 H        -6.9617599055        0.1444324288       -3.7001353099
 H        -6.7824716564        0.5417595684       -5.3853190789
 H        -9.7183698881       -1.6273541691       -1.4823716833
 H       -11.0346157487       -2.3713018244       -2.1788153717
 H       -12.6208239965       -0.6639295908       -1.4859781779
 H       -11.4095087262        0.4185304301       -0.7211747540
 H       -10.4360828745       -0.5049861575        2.7411306736
 H       -11.7381452623       -0.8070406520        3.8853765631
 H        -9.9618720340        0.5823416524        4.7121715771
 H       -11.4409646033        1.5930021728        4.6317337334
 H        -7.5626288655        4.2683769097        1.7411240931
 H        -7.3896622308        3.5254035330        3.3176663554
 H        -6.0324114283        5.5788098695        3.1930800537
 H        -7.5574035114        6.0770217164        4.0009133448
 H        -7.9881045810       11.3129491326        0.8994483213
 H        -6.5837257256       11.1441080873        1.6993312737
 H        -8.0582963936       11.1178125906        2.6737588133
 H        -7.0500112381        7.9834699507        4.7348007848
 H        -8.6213746111        8.2155831046        4.0158449904
 H        -7.5942200457        9.5941044278        4.2029796123
 H        -4.9760901377        8.3139120779        3.5256941012
 H        -5.4120789047        9.8182724366        2.8076231998
 H        -4.7588663090        8.4915076675        1.6629304979
 H       -12.2335386235        3.4999702142        3.4820836570
 H       -11.6186316034        5.0540003995        3.9645796989
 H       -11.8180728637        3.8274901646        5.2524873669
 H        -9.2376927686        4.0784081952        6.0607014366
 H        -8.2598796978        2.8734918225        5.2754658637
 H        -9.8934763256        2.5794133101        5.9314148691
 H       -13.5938889076        0.8732552353       -0.2825867094
 H       -14.8224444584        0.7033318432        1.0254003315
 H       -14.7182395730       -0.4417017690       -0.3101724176
 H       -13.2747140108       -2.5921767625        2.3058811361
 H       -14.8532182825       -1.9457071421        1.7104285021
 H       -13.9403380731       -1.3083698001        3.1491271632
 H        -9.7069218344       -1.8642736425       -6.3389266958
 H       -11.0210642601       -0.8547862559       -5.6573572090
 H       -10.8883038958       -2.5656747771       -5.0865624395
 H        -7.8309131987       -1.5943696477       -2.9850846245
 H        -7.8699519009       -2.2826380270       -4.5959073134
 H        -8.9388752716       -2.9753253970       -3.3454549796
 H        -9.5888895059        5.7161737320       -3.8965512144
 H       -10.0054430174        4.1049727800       -4.3234915530
 H        -8.6145139540        4.7387013267       -5.0993424561
 H        -6.1431200660        4.5636190807       -3.1141744714
 H        -6.8252502147        4.5709512729       -1.4938838016
 H        -7.0231057143        5.9734858106       -2.6418172245
 H       -12.8923646813        4.8182118275        1.3767545754
 H       -14.0403767985        3.8601417247        0.9549120627
 H       -14.5537753145        5.4422421112        1.4200445909
 H       -14.4197551620        5.8005565544       -2.4941292191
 H       -15.6537823420        5.7583878967       -1.1355030989
 H       -14.9225030338        4.2889875247       -1.6974352569
 Na       -9.7144531216        6.6887954724        0.8339327208
