117

 C       -14.0046345390        8.3652730688       -0.0883895922
 C       -12.8963141081        7.3361789745       -0.1196791524
 O       -11.8018533910        7.5574922815        0.3751323942
 C       -13.3693986345        5.7954633381       -0.4629013908
 C       -12.1962567202        5.1072567491       -1.1406476093
 O       -11.7963263647        5.5281109564       -2.2670490254
 C       -11.3052315669        4.1709567626       -0.3235357504
 C       -10.1992717711        3.4798424276       -1.2059876308
 C        -9.1525072323        4.4721585428       -1.6134478185
 O        -8.9064618149        5.4592375251       -0.9308944509
 C        -8.2973564513        4.2090971212       -2.8940244093
 C        -7.8266323168        2.7460065114       -2.8425899456
 O        -7.6813094656        2.0527788681       -1.8716432264
 C        -7.2434887667        2.2133986675       -4.2438240040
 C        -7.3444602902        0.6857302413       -4.3801759021
 C        -8.6566706730        0.2324103523       -5.0176009057
 O        -9.0754176343        0.7158474424       -6.0569338774
 C        -9.4831066510       -0.9263864020       -4.2893791651
 C       -10.5194349746       -0.3512493098       -3.1610669383
 O       -10.7054660270        0.8684523204       -3.0614041154
 C       -11.2507086158       -1.4865516919       -2.4547596196
 C       -12.3720338693       -0.9713321326       -1.5858695626
 C       -12.1535654034       -1.3006455823       -0.0078510085
 O       -11.3382915561       -2.0813385053        0.3678592444
 C       -13.0732314680       -0.5409304733        0.9979133258
 C       -12.2128852172        0.3241132908        1.9336775428
 O       -12.3900190085        1.5400158980        2.0702139495
 C       -11.0992174557       -0.3174621893        2.6928965829
 C       -10.5192245871        0.6518257979        3.7064359498
 C        -9.9385187464        1.9363587247        3.1840465808
 O        -9.3198103979        2.0660836211        2.1786021945
 C       -10.0494698944        3.2891637680        4.1274724860
 C        -9.3766216346        4.3940698804        3.1614513973
 O       -10.1616153886        5.0832538157        2.5570170623
 C        -7.8902762070        4.3624970182        2.9910287295
 C        -7.3208374666        5.6490445131        3.5882202120
 C        -7.2009373534        6.6954387207        2.4392936023
 O        -7.0627537812        6.3559085367        1.2579256835
 C        -7.0443482043        8.1379203142        2.8736821112
 C        -7.7312394140        9.1353842843        1.7647033048
 O        -8.8109747334        8.8182359606        1.3006902681
 C        -7.1776139635       10.5011898700        1.4441186686
 C        -7.7438989896        8.4950386767        4.1997416660
 C        -5.5003336028        8.3881047528        2.9622007783
 C       -11.5575125150        3.6374425722        4.3674305318
 C        -9.3169046833        3.1249763923        5.4667260998
 C       -14.1466728582        0.4349541568        0.3813043953
 C       -13.8203104340       -1.6445245828        1.8147196248
 C       -10.2868003702       -1.6678987055       -5.4226962412
 C        -8.4913616070       -1.9077045311       -3.7017093479
 C        -9.1939227118        4.6592823448       -4.0650549788
 C        -7.0368694670        5.0952299044       -3.0427203359
 C       -13.7393398928        5.1031161887        0.8345245798
 C       -14.5039687603        5.8894650944       -1.4256841204
 H       -13.6145881548        9.2908614880        0.2881269857
 H       -14.7477261372        8.0447416762        0.6351571784
 H       -14.6063190053        8.5400165652       -1.0329726484
 H       -11.8878277326        3.3385865783        0.1331848687
 H       -10.8289563991        4.6030634458        0.5652405493
 H       -10.5762431990        3.0624808155       -2.0806246551
 H        -9.7126150017        2.6989478963       -0.5858755572
 H        -6.2174653697        2.6110724984       -4.2654909524
 H        -7.6735307660        2.6475698026       -5.1146912070
 H        -7.3203713323        0.2466234032       -3.4033700598
 H        -6.4868972437        0.2643632131       -5.0156726698
 H       -10.4576397429       -1.8170235540       -1.7033652857
 H       -11.5907552059       -2.2575036546       -3.1209032914
 H       -13.2593627138       -1.4249785668       -2.0219980094
 H       -12.3292562852        0.0616591273       -1.7656784567
 H       -10.3094535674       -0.7062177183        1.9844003208
 H       -11.4313680113       -1.1854596067        3.2560339077
 H        -9.7005908776        0.2147335244        4.2664962748
 H       -11.2917800972        0.9336219875        4.4751815644
 H        -7.5343313688        4.2332331022        1.9361959843
 H        -7.5554915159        3.5032478471        3.5936822190
 H        -6.2990322070        5.4266746299        3.9221453134
 H        -7.8726659025        6.0923099158        4.4106043418
 H        -7.8200284171       11.2779115028        1.0039288873
 H        -6.3780461261       10.3710634553        0.7123286085
 H        -6.5979569433       10.9409938448        2.1942721000
 H        -7.1790450930        8.1266038703        5.0622928437
 H        -8.7512264808        8.1837459185        4.2415803309
 H        -7.6839389977        9.5779886694        4.3793853242
 H        -5.0272453246        7.7212285633        3.6999807736
 H        -5.3427349650        9.4337645985        3.2169144788
 H        -4.9934889051        8.0739459874        2.0191130766
 H       -11.7879941906        4.2833005285        3.5443908783
 H       -11.8282962623        4.1615620579        5.3496806602
 H       -12.2771411679        2.8534893980        4.1630720956
 H        -9.4615424451        3.9646399682        6.1297509255
 H        -8.2418130949        2.8275985393        5.5450752649
 H        -9.7280501019        2.2930350412        6.0699535787
 H       -13.7404789185        1.2694167653       -0.2764617766
 H       -14.5082375166        0.9863811654        1.2376394386
 H       -15.0094716732        0.0305889866       -0.1530403895
 H       -13.1264566733       -2.4811579723        2.1499875516
 H       -14.7184770072       -2.0562485020        1.3483931139
 H       -14.2173714444       -1.1799323825        2.7362734855
 H        -9.5288681033       -1.7709296234       -6.2557778691
 H       -11.1629875826       -1.0450186881       -5.6988750024
 H       -10.5752609892       -2.6106316359       -4.9993773487
 H        -7.9860587561       -1.3463444944       -2.9567820489
 H        -7.7664448554       -2.2080371922       -4.4411052864
 H        -9.0223258356       -2.7214079115       -3.2282422071
 H        -9.4147479096        5.7268449848       -3.9116008604
 H       -10.1659856199        4.1313900209       -4.2992488044
 H        -8.5989158418        4.7005884727       -4.9641570347
 H        -6.5281260907        5.0489967837       -4.0098437366
 H        -6.3080872412        4.8404533920       -2.1951978304
 H        -7.2733667267        6.1629137132       -2.8461439550
 H       -13.0578650685        5.0728063766        1.6762678112
 H       -14.2120700722        4.0969857965        0.5835058627
 H       -14.6027213689        5.5335432703        1.2562958945
 H       -14.2056695530        6.4884268252       -2.2769241560
 H       -15.3387610375        6.3629362213       -0.9754919491
 H       -14.6986345302        4.9088625869       -1.8493572828
 Na       -9.8770280020        6.6535294245        0.9482702527
