117

 C       -15.2991557883        7.1630399279       -0.4833541809
 C       -13.8596446852        7.2509395670       -0.0249291115
 O       -12.9519793422        6.3928076067       -0.2544400168
 C       -13.3527860458        8.6060603757        0.6045575433
 C       -12.7167038707        8.3161721165        2.0021680248
 O       -11.9571055583        7.3619322306        2.1132177833
 C       -13.0923050132        9.3601038908        3.2127804161
 C       -12.9878722478        8.5709348018        4.5513134276
 C       -14.2765628339        7.6233835840        4.5012952480
 O       -15.2879024043        8.0168577654        3.8971011200
 C       -14.3279196176        6.3191823381        5.2145938079
 C       -13.9034040307        5.2274902544        4.1268044415
 O       -12.7868696273        5.2510701316        3.6770436990
 C       -14.9117962836        4.1772165395        3.6219801997
 C       -14.6298886139        2.6335625003        3.8100296899
 C       -13.8605952252        1.8961556656        2.6773152549
 O       -13.4228076562        2.5075676473        1.7807426770
 C       -13.7166318170        0.2870457620        2.6906613265
 C       -12.1430710670       -0.0628417290        2.8101886253
 O       -11.9900724039       -1.2102037613        3.1499079697
 C       -11.0482737968        0.8529431975        2.3142472417
 C       -10.4873249062        1.9322435502        3.3315805962
 C        -9.5467378525        2.8475785388        2.4655924424
 O       -10.1565730196        3.5904837289        1.6399451781
 C        -8.0108315222        2.7562336257        2.4744231102
 C        -7.9155954220        1.7516484760        1.2050779799
 O        -8.2258118195        0.5420977435        1.2601782897
 C        -7.4809257438        2.5260827747       -0.0470884066
 C        -6.8139204931        1.6941164869       -1.2382398990
 C        -7.4633602376        2.2234745248       -2.6876672133
 O        -8.6800200198        2.2154907493       -2.7500305988
 C        -6.5617625885        2.7380026957       -3.7664298900
 C        -5.1632286274        2.0184577897       -3.8396541369
 O        -4.3775798171        2.1777152090       -2.9189730691
 C        -4.8709119040        0.8731965686       -4.9199451854
 C        -4.0476512343        1.3207438201       -6.2421307050
 C        -3.2734752261        0.1955615089       -7.0887366541
 O        -3.3718676673       -0.9846729811       -6.8402495144
 C        -2.5426608479        0.6247172503       -8.4333291862
 C        -3.8116312436        0.8417333741       -9.5197487086
 O        -4.4361779704        1.8454975818       -9.3684301217
 C        -4.1470750576       -0.3979684072      -10.5522154679
 C        -1.7575020963        1.9663387545       -8.0884570360
 C        -1.5337067013       -0.4228712511       -8.9857081978
 C        -7.3076059451        2.5380511830       -5.0586038360
 C        -6.2299463568        4.2643153087       -3.5331009249
 C        -7.1875692966        4.0484163974        2.2994449318
 C        -7.3981579788        2.0978996776        3.6457538825
 C       -14.2847091822       -0.4499835346        3.8998546531
 C       -14.3356509477       -0.2539924437        1.4747429846
 C       -13.2302834717        6.1820760385        6.3348730999
 C       -15.6542572907        6.2299382945        6.0216308381
 C       -12.2072798260        8.9957696539       -0.3749421276
 C       -14.4556904375        9.8267766114        0.5507980814
 H       -15.5621511854        6.1246975649       -0.6127365155
 H       -15.3228167587        7.6235677773       -1.4302814775
 H       -15.9512357040        7.8139252408        0.1055428558
 H       -14.0828477740        9.6932254547        3.1620761489
 H       -12.4732075898       10.2684274826        3.0184655065
 H       -13.0923965353        9.1368425638        5.5091538438
 H       -12.1580398878        7.9143303312        4.6538214864
 H       -14.8422228976        4.4222995790        2.5591813150
 H       -15.9437477417        4.4385258568        3.9679055583
 H       -15.4169307271        2.0042863613        4.1443487614
 H       -13.9920597025        2.7004078184        4.6746014993
 H       -11.2516206911        1.3698690451        1.4035906011
 H       -10.2655852311        0.1518234211        2.0733113876
 H        -9.9321377334        1.4306597187        4.0820917063
 H       -11.3273548488        2.4842831700        3.8301045269
 H        -6.6325985532        3.1889933482        0.1835217209
 H        -8.3627957402        3.2274647037       -0.4009629935
 H        -7.1904931781        0.6730172176       -1.0013146010
 H        -5.7886071214        1.8537031388       -1.0491159245
 H        -5.8239429033        0.3713569772       -5.1161807997
 H        -4.1774956064        0.1427343677       -4.4046874080
 H        -3.3295057654        2.1062103361       -5.9587405936
 H        -4.8520498112        1.6234897455       -6.9004036537
 H        -4.9194981248       -0.0532497474      -11.3434296278
 H        -4.4037852418       -1.4066737516      -10.1520295221
 H        -3.2742329119       -0.4735459861      -11.0812973141
 H        -0.7065749914        1.8237160538       -8.1857709406
 H        -1.9216938682        2.2351177710       -7.0250760898
 H        -2.1554041968        2.7268389064       -8.7940030333
 H        -1.1275279296        0.0370746999       -9.9232603300
 H        -2.0445855177       -1.4406872518       -9.0290719230
 H        -0.6968147197       -0.5351841505       -8.3160568610
 H        -8.3600782661        3.0290503477       -4.9522798694
 H        -7.5680176099        1.4593935701       -5.2271399623
 H        -6.7391645518        2.8868301156       -5.8541318702
 H        -5.5814343664        4.3619169017       -2.7236033596
 H        -7.2388267409        4.5991507916       -3.4028790569
 H        -5.7239916588        4.8754546271       -4.3178739236
 H        -6.2873097228        4.0359547449        1.7510403099
 H        -6.8775317350        4.5530398781        3.2710141140
 H        -7.8867757157        4.8441778951        1.8028085777
 H        -7.6121197566        1.0362486503        3.6405749711
 H        -7.8785530976        2.4105344190        4.5331148138
 H        -6.3376408219        2.2191265427        3.8117557572
 H       -15.1201492133       -1.0284105157        3.5258736180
 H       -14.7571628625        0.1378542323        4.6464152696
 H       -13.5955826948       -1.1730592393        4.2656869498
 H       -14.2626629516       -1.3336648831        1.3758899802
 H       -13.9936119944        0.0163901827        0.5131170172
 H       -15.3673817571        0.1187775100        1.4175223600
 H       -13.1275426828        5.4616270064        7.1161858896
 H       -13.2089237924        7.2262448796        6.6804590883
 H       -12.2642535399        6.0321272678        5.7525831062
 H       -15.8813273202        7.0497144057        6.6371555455
 H       -15.6391782532        5.3033554374        6.7421383993
 H       -16.5584933795        5.9554429581        5.3457585867
 H       -11.4089818271        8.3017934338       -0.3174967351
 H       -11.7246578556        9.9182537029       -0.2767638629
 H       -12.5224053250        9.0659065396       -1.4270061343
 H       -14.0053508423       10.7994171532        0.6439938312
 H       -15.2118293931        9.7863278344        1.3343588673
 H       -15.0703826818        9.7040761371       -0.3799464435
 Na      -12.1260319504        4.6837610472        1.4138617415
