117

 C       -15.2531752678        7.1308297026       -0.6181256862
 C       -13.8353756298        7.2505856758       -0.0499997013
 O       -13.1413670071        6.2324462666       -0.0554613325
 C       -13.2913908013        8.5333764188        0.5197332797
 C       -12.7115744502        8.3023466903        1.9290798986
 O       -11.9497340416        7.3808121773        2.0706889897
 C       -12.9773716114        9.1764711155        3.0950895622
 C       -13.0342705509        8.4495075560        4.4018783614
 C       -14.3728518910        7.7578468001        4.6081875441
 O       -15.3198041410        8.1823728638        4.0031782501
 C       -14.2445102526        6.3457553144        5.2158324617
 C       -13.8934441102        5.2150076136        4.1327945088
 O       -12.7944500095        5.2268562912        3.7209405298
 C       -14.9735768806        4.1329554135        3.7114393159
 C       -14.4806985756        2.7406627100        3.9427863239
 C       -13.9329317252        2.0381197216        2.7436273398
 O       -13.4985870956        2.5839863162        1.7489928269
 C       -13.8319560850        0.4031075257        2.8107566424
 C       -12.1913817267        0.0353102891        2.8208367511
 O       -11.9400824723       -1.1439867988        3.1262140844
 C       -11.0360251325        0.9226697007        2.3645589425
 C       -10.4729500530        1.9837121685        3.3460398735
 C        -9.5391395853        2.9599500091        2.5182438230
 O       -10.0732037424        3.7021629034        1.6939123041
 C        -8.0092609502        2.8056176251        2.4305865074
 C        -7.9876293135        1.8136302990        1.2005552342
 O        -8.4851427814        0.7016472636        1.3195431291
 C        -7.4426893821        2.4851337041       -0.0903059419
 C        -6.9060783398        1.7387637282       -1.3149509073
 C        -7.4520677974        2.3708296577       -2.6984666178
 O        -8.6548706656        2.2467902256       -2.8758118842
 C        -6.5476378604        2.7698600810       -3.8936831375
 C        -5.0853452937        1.9744957901       -3.8456765092
 O        -4.2412044780        2.2921393170       -3.0059164225
 C        -4.8436782977        0.7272029945       -4.8200707713
 C        -4.0314214945        1.1350645520       -6.1241586625
 C        -3.3403676947        0.0086207559       -6.9233645183
 O        -3.6259990344       -1.1863450394       -6.8511074902
 C        -2.5407437039        0.5425486921       -8.2902757836
 C        -3.6300878359        0.7150981986       -9.3872694233
 O        -4.2701297832        1.7605967056       -9.6168841806
 C        -4.0183830256       -0.3976317322      -10.2735071921
 C        -1.7478539861        1.9016002249       -8.2630975164
 C        -1.5445995327       -0.5901722583       -8.9396077756
 C        -7.3131889858        2.5995874560       -5.2376977578
 C        -6.4441483473        4.3461817354       -3.6246806603
 C        -7.1696468258        4.0771527606        2.2044370225
 C        -7.3096560227        1.9854330241        3.7007402687
 C       -14.4563227355       -0.4378742369        3.9983908574
 C       -14.3317074579       -0.1608682844        1.4380122636
 C       -13.0750386969        6.2795378655        6.3657305400
 C       -15.6982819246        6.1449408787        5.8320538744
 C       -12.0276045512        8.9865770000       -0.3310942578
 C       -14.3589783946        9.5919710320        0.5225888851
 H       -15.3139857469        6.1398253047       -1.2358268196
 H       -15.4713548938        7.9852468229       -1.2612955644
 H       -15.9909680337        7.2629064771        0.1589008048
 H       -13.9160090918        9.7708839175        2.9906549135
 H       -12.1664994441        9.9106921129        3.0759120367
 H       -12.8032920267        9.0791939423        5.3075934414
 H       -12.3193896673        7.5345168245        4.4506927526
 H       -15.0345503009        4.1833399863        2.6443953344
 H       -15.9557857800        4.2609689790        4.1329725493
 H       -15.3706051492        2.0834687886        4.0743188059
 H       -13.9409449026        2.6437654733        4.8891726676
 H       -11.0914540421        1.4811927291        1.4482231829
 H       -10.3600074605        0.1482137615        2.2306348373
 H        -9.8711707788        1.5655839528        4.2261912856
 H       -11.3020518393        2.4703258992        3.7581668522
 H        -6.5481769553        3.1503266643        0.0675281926
 H        -8.3061898249        3.1546293058       -0.3654273356
 H        -7.2617853666        0.7241159781       -1.1467627864
 H        -5.8197409763        1.9988046431       -1.1919070820
 H        -5.8304869702        0.1600167903       -5.0404653265
 H        -4.2081981980        0.0704691905       -4.1911152295
 H        -3.4123423579        2.0242462089       -5.9750005217
 H        -4.9308665829        1.2617402534       -6.7876546803
 H        -4.6208777573        0.0233279934      -11.0322341223
 H        -4.5627816745       -1.1202263941       -9.7600450100
 H        -3.1377307380       -0.9306992265      -10.7737847071
 H        -0.6710568811        1.7167774416       -8.3383533407
 H        -1.9220799020        2.3731676882       -7.3295280023
 H        -2.1832338339        2.4539098105       -9.0202521305
 H        -1.4433035314       -0.3165208902      -10.0375590939
 H        -1.9099916429       -1.5362270347       -8.7092358630
 H        -0.5457911245       -0.4694358661       -8.5023048970
 H        -8.1414053969        3.3284887154       -5.0878827734
 H        -7.8584524942        1.6812721274       -5.4673342270
 H        -6.6952785823        3.0510624623       -5.9908904588
 H        -5.8995651067        4.5913760530       -2.6563807366
 H        -7.4973346839        4.5498436501       -3.6332641424
 H        -5.9243655016        4.9603119065       -4.3335790964
 H        -6.1769012273        3.9750416432        1.7835113564
 H        -6.9823713471        4.6494982505        3.1645382186
 H        -7.7077698848        4.7911802948        1.6033342292
 H        -7.3280183960        0.9407090685        3.4835632326
 H        -7.8160863710        2.0446213960        4.7079347147
 H        -6.3027248839        2.2465527348        3.9729307307
 H       -15.3746435410       -0.8643659805        3.7502097457
 H       -14.6871475079        0.0535096799        4.9997166140
 H       -13.7296605151       -1.2462826509        4.0517918481
 H       -13.9176089741       -1.0643056219        1.0943574376
 H       -14.0486655057        0.4180631296        0.5516998712
 H       -15.4140222078       -0.0760389803        1.3485833331
 H       -12.8554909340        5.2970928033        6.9157756799
 H       -13.0948073744        7.1365388208        7.0407149357
 H       -12.1515556746        6.3176484899        5.7958022040
 H       -15.9943277980        6.9338443270        6.5994754544
 H       -15.9979645000        5.1743632601        6.2359419927
 H       -16.4116872340        6.2466401892        4.9641419112
 H       -11.5251159652        8.0246863807       -0.4902368569
 H       -11.2424264282        9.5356892071        0.1120731874
 H       -12.1573606410        9.4939435885       -1.2275866992
 H       -13.8938730930       10.4976304992        0.9342620726
 H       -15.1903570015        9.2960354434        1.1731754934
 H       -14.7902689614        9.7955907325       -0.4861892104
 Na      -12.2023338682        4.8023867639        1.4394723846
