117

 C       -13.8283293276        7.5168027022       -1.3141538862
 C       -13.0868025396        6.6716492607       -0.3594409334
 O       -12.1993472080        7.1029290311        0.3489711807
 C       -13.4624592941        5.1272085254       -0.3788986314
 C       -12.2619180668        4.4672030765       -1.1764041632
 O       -12.3084824009        4.5111091610       -2.4174708473
 C       -11.2537904990        3.6279879561       -0.4317400632
 C       -10.1343722584        3.1220262145       -1.4161293932
 C        -9.1002687486        4.1646588834       -1.8378736758
 O        -8.9632930023        5.2389826332       -1.2201849749
 C        -8.2451534391        3.8608985489       -3.1482523379
 C        -7.8078258021        2.3755882353       -3.1251398125
 O        -8.0116652008        1.7239194262       -2.1632633023
 C        -7.1176994645        1.8892810333       -4.3601223541
 C        -7.2365872285        0.3663030839       -4.5602036566
 C        -8.7849047788        0.1745413263       -4.7566837898
 O        -9.2806347067        0.9752925486       -5.5351460595
 C        -9.6118341102       -0.9069139088       -4.0314001397
 C       -10.3245844719       -0.1068010254       -2.9176738085
 O       -11.1172268126        0.7974236941       -3.2127152783
 C       -10.1844449917       -0.5744903008       -1.4308333694
 C       -11.4573918371       -0.2927864378       -0.6864420459
 C       -11.6500054565       -1.2067692486        0.5158378412
 O       -11.0778052733       -2.2252430612        0.7018129559
 C       -12.7801845130       -0.6698165277        1.6481185959
 C       -12.1671418314        0.5304756566        2.4264309141
 O       -12.5998247494        1.6511743222        2.2835457928
 C       -11.0217974736        0.2392824475        3.4066866314
 C       -10.8893112975        1.5283035218        4.3394994566
 C       -10.1794512971        2.6110039326        3.5220017209
 O        -9.6087980874        2.3331037800        2.5028592751
 C        -9.9979568933        4.1148625235        4.1849215462
 C        -9.2815986965        4.8507162320        3.0092480815
 O        -9.9902082857        5.6094583536        2.3686388046
 C        -7.8061439248        4.5005879268        2.6180511245
 C        -6.7985027153        5.7369928472        2.7764090185
 C        -7.1446923233        6.9083293452        1.8221588684
 O        -7.5161375136        6.6044380940        0.6984232957
 C        -7.0287355899        8.4038881536        2.3204566161
 C        -8.0442182154        9.3285349734        1.5789522801
 O        -9.1155889905        8.9011032727        1.1705502069
 C        -7.7318379936       10.7667330520        1.4400914927
 C        -7.5783031360        8.5826252571        3.7526032434
 C        -5.5439918078        8.9086928332        2.1372390461
 C       -11.2748276780        4.8403661446        4.6374295180
 C        -9.1504907145        3.8696801189        5.4717823040
 C       -14.0677659420       -0.2081703828        0.9547280643
 C       -13.0241158565       -1.8822163575        2.6078854031
 C       -10.7648656999       -1.4111124817       -5.0333407660
 C        -8.7199709953       -2.0191086089       -3.5402463249
 C        -9.1755544149        4.2355122589       -4.4652630673
 C        -7.0390302709        4.7955644014       -3.2493107992
 C       -13.7837146031        4.6904300011        1.1247995443
 C       -14.7135330487        4.8772520590       -1.2708826629
 H       -13.6446538023        8.5929140810       -1.2402230541
 H       -14.9149162843        7.3515504286       -1.1570049047
 H       -13.5485004163        7.3035518380       -2.4101226200
 H       -11.7900997342        2.7777091438        0.0746207967
 H       -10.8321430755        4.2236375411        0.3892237358
 H       -10.6574510185        2.8135640455       -2.3459779411
 H        -9.6251012790        2.3208854263       -0.9428136699
 H        -6.0706697906        2.1666657599       -4.2546711500
 H        -7.5562287275        2.4339856424       -5.2041405446
 H        -6.7484470890       -0.1262767152       -3.6743296316
 H        -6.6892158374        0.0971858212       -5.4371296478
 H        -9.2305163552       -0.2604085414       -0.9931328645
 H       -10.0704704672       -1.7123299115       -1.3978222811
 H       -12.3383472787       -0.5060870518       -1.3780224144
 H       -11.7203529114        0.7071012416       -0.4354226514
 H       -10.0405016787        0.0068323581        3.1555173458
 H       -11.2508784761       -0.5880869367        4.1029358371
 H       -10.2449281187        1.2352763725        5.2225100646
 H       -11.7900945008        1.9197751328        4.7782885451
 H        -7.7105850640        4.1461346722        1.5870747487
 H        -7.3786697895        3.7015021115        3.2235955772
 H        -5.7772642355        5.3579900197        2.4785171047
 H        -6.5521668500        6.0225742325        3.8622149035
 H        -8.6720052843       11.2782325011        1.3159766193
 H        -7.1750446314       10.8566907783        0.5082315075
 H        -7.1969748373       11.3073013300        2.2693659623
 H        -6.9339136412        8.2835663087        4.5538583224
 H        -8.4771159420        7.9390515690        3.7237685569
 H        -7.8697062356        9.5801293843        3.9878453305
 H        -5.0146815100        8.3415779541        2.8844089927
 H        -5.4803109947        9.9796789109        2.2986645600
 H        -5.2209290246        8.6714902663        1.0929840838
 H       -12.0444883762        4.7936319976        3.8122823874
 H       -11.0931330017        5.8167603749        4.9518546388
 H       -11.6640307356        4.2468806079        5.4615407069
 H        -8.7391147023        4.7547590487        5.8908072623
 H        -8.2689611278        3.1458475574        5.3071694217
 H        -9.8407378888        3.3752346921        6.1787814664
 H       -13.8198216052        0.4582695758        0.1997756056
 H       -14.6486710303        0.3962741117        1.6755176928
 H       -14.6296497772       -1.0375307022        0.6164086929
 H       -12.1792304256       -2.5164700731        2.6915950919
 H       -13.8276015313       -2.6005101417        2.2668652580
 H       -13.3979363034       -1.5662861892        3.5854516153
 H       -10.3203939806       -1.7737577829       -5.9820696440
 H       -11.3420445283       -0.5567283247       -5.1793950312
 H       -11.3361656787       -2.2057657893       -4.6067656404
 H        -7.9922826939       -1.7769095897       -2.7423279172
 H        -8.0953316655       -2.3962960670       -4.3498473923
 H        -9.3265901543       -2.9298202874       -3.1788063659
 H        -9.6397548250        5.2032758800       -4.3565236715
 H        -9.9513978022        3.5324833568       -4.5689250638
 H        -8.5770579250        4.3563639953       -5.3877206959
 H        -6.2595376260        4.3560545161       -3.8917194768
 H        -6.5864682198        4.9475242897       -2.3416981274
 H        -7.3324749915        5.7902286901       -3.5361184842
 H       -12.9116100633        4.8131111223        1.8142412210
 H       -14.1451486150        3.7049059161        1.1781876266
 H       -14.5205936222        5.3239406090        1.6641103812
 H       -14.7247725785        5.2664176864       -2.3186334921
 H       -15.6581208511        5.2698717723       -0.7593740254
 H       -14.8583601491        3.7948405587       -1.3719623140
 Na       -9.8029096558        6.7608531413        0.4654506551
