117

 C       -13.8157080408        7.5233649844       -1.4378931904
 C       -13.1226633228        6.7088365798       -0.3834345898
 O       -12.2366867283        7.1375111730        0.3023379013
 C       -13.5605487776        5.1192081497       -0.3834002357
 C       -12.4017012957        4.3925470188       -1.1411997160
 O       -12.2809682403        4.4693698933       -2.3272981642
 C       -11.2178506537        3.6347169781       -0.3777798841
 C       -10.1377236849        3.1840339215       -1.4287374416
 C        -9.1214454392        4.2117044940       -1.9201985404
 O        -8.8404622344        5.2430170284       -1.3524796062
 C        -8.2356289721        3.8688172352       -3.1774775101
 C        -7.7566095802        2.4254889769       -3.1158250242
 O        -7.9850628548        1.6923805137       -2.2019016775
 C        -6.9206825202        1.8424024854       -4.3415436194
 C        -7.2759105509        0.2893811919       -4.4890187082
 C        -8.7889072995        0.1790407743       -4.8753805579
 O        -9.3708022671        0.9251347479       -5.5935869886
 C        -9.5587085000       -0.9245808058       -4.0720501567
 C       -10.3104794926       -0.1280733203       -2.9247037752
 O       -11.0848191807        0.7825281944       -3.1673907197
 C       -10.2943933861       -0.5785766386       -1.4731183870
 C       -11.5024392325       -0.2780420751       -0.7030756711
 C       -11.6894850494       -1.1227154638        0.5782071283
 O       -11.0341803555       -2.1489719989        0.5750932993
 C       -12.6950114040       -0.7118668516        1.7065692926
 C       -12.1488311199        0.5161844780        2.5563692693
 O       -12.5889075156        1.6548227356        2.2866485059
 C       -11.1493266840        0.2928379507        3.6057471219
 C       -10.8864002897        1.5856083281        4.4095767055
 C       -10.2246840017        2.6077096434        3.5891258486
 O        -9.7447225917        2.4561701734        2.4808898315
 C        -9.9805377757        3.9988622953        4.2370002922
 C        -9.2243395389        4.9065586040        3.0779978824
 O        -9.9201591413        5.6217224122        2.4157362862
 C        -7.8267672208        4.5690039445        2.6808778034
 C        -6.8352085112        5.7813166098        2.7763948902
 C        -7.2375685833        6.9119407259        1.8236887755
 O        -7.5675449689        6.6485591397        0.6826452607
 C        -7.1434197182        8.3638934058        2.3379930778
 C        -8.1207938373        9.3815960903        1.4582939472
 O        -9.1657799563        8.9240679877        1.0874645919
 C        -7.7028902623       10.7943772870        1.4048676955
 C        -7.5434019741        8.5813947529        3.7847703830
 C        -5.6403529843        8.8812312288        2.0798500631
 C       -11.3121794454        4.6804322779        4.6829551499
 C        -8.8962871939        4.0498818390        5.3482750058
 C       -14.0310403187       -0.2681257212        1.1456384034
 C       -12.8989910901       -1.9740432652        2.5929117497
 C       -10.7649673604       -1.4215309973       -4.8717628913
 C        -8.7103287555       -2.0933924372       -3.5844657800
 C        -9.1896748727        4.0155900262       -4.4210070943
 C        -7.0173364085        4.8710354490       -3.3561064260
 C       -13.6445689924        4.6814258743        1.0451268848
 C       -14.8760001196        4.8447422454       -1.1871300892
 H       -13.4658359436        8.5529893029       -1.4295343374
 H       -14.9579573720        7.5310238260       -1.3817070596
 H       -13.4527831066        7.1960775204       -2.4874236441
 H       -11.6307023143        2.7830121198        0.1885022572
 H       -10.6065814687        4.2138331092        0.3714967645
 H       -10.5940497882        2.6838081673       -2.2788992232
 H        -9.4976653140        2.5317314655       -0.8935751010
 H        -5.8989501559        1.9403836633       -4.1198207721
 H        -7.2076688288        2.3820152138       -5.2618792323
 H        -7.1719464705       -0.1304569514       -3.4763481338
 H        -6.5337789606       -0.2414477695       -5.1464001905
 H        -9.4584252519        0.0056614251       -0.9906433592
 H        -9.9264449548       -1.6256022528       -1.3434613778
 H       -12.4129079719       -0.3345000477       -1.2089558032
 H       -11.5003524094        0.8070234309       -0.5007566048
 H       -10.1933775178        0.0641547388        3.1296669971
 H       -11.2396481555       -0.5389987831        4.2976407114
 H       -10.4180639130        1.4083129118        5.3488583630
 H       -11.8533304227        2.0768325918        4.6999370451
 H        -7.8263842097        4.2473726118        1.6285849453
 H        -7.4338633312        3.6778029015        3.2749918203
 H        -5.7921370682        5.4994989396        2.6476292732
 H        -6.7755307908        6.1687226361        3.7889934841
 H        -8.5592076359       11.4447640153        1.6460892410
 H        -7.2075372506       11.0718075528        0.4916229414
 H        -7.0489773619       10.9899707319        2.1942516095
 H        -6.8212019004        8.1410870043        4.4892410834
 H        -8.5083001750        8.1768361923        3.9660877600
 H        -7.5340640982        9.6508639241        4.0393979530
 H        -5.0010562722        8.3014950587        2.6825106680
 H        -5.6263012274        9.8882426570        2.3877646670
 H        -5.3800710411        8.8109529659        1.0136287256
 H       -11.7895713313        4.9342039334        3.7672702534
 H       -11.0377401044        5.5804077274        5.2686525378
 H       -11.9715052458        4.0737390795        5.2453515947
 H        -8.6004633343        5.0681503212        5.5067799267
 H        -7.9740299620        3.3844395828        5.2539379957
 H        -9.4512363495        3.7371393042        6.2720247295
 H       -13.9036982611        0.6868474502        0.6002361046
 H       -14.6723611058       -0.0246018562        1.9797004557
 H       -14.4290221242       -1.0606434517        0.5721124849
 H       -12.0864412313       -2.6937773514        2.4725013413
 H       -13.8031649606       -2.5171248260        2.4157249212
 H       -13.0018824852       -1.6974891483        3.6014189509
 H       -10.4587779952       -1.9443334210       -5.8164867709
 H       -11.3648034383       -0.5129040118       -5.0771681130
 H       -11.3305029047       -2.0540450802       -4.2490574762
 H        -8.0180640472       -1.7998039389       -2.8016946711
 H        -8.0347184789       -2.5435622309       -4.3057128531
 H        -9.3448794803       -2.9113273467       -3.1135025798
 H        -9.4920269280        5.0162658185       -4.5899747193
 H       -10.0707004959        3.3805323760       -4.2560087555
 H        -8.6760257104        3.7554257284       -5.3163806435
 H        -6.3084615494        4.3863369165       -3.9840859988
 H        -6.5184849539        4.9669155274       -2.3840725131
 H        -7.2382929320        5.8544264926       -3.6765061891
 H       -12.6980860440        4.8873893486        1.5977918154
 H       -13.8969931504        3.5434302830        1.0786015312
 H       -14.3996431447        5.1107996052        1.6706978856
 H       -14.6672639115        5.0312329669       -2.2549490896
 H       -15.8517495155        5.3122075661       -0.9645907905
 H       -14.9782126888        3.7703066705       -1.1811790340
 Na       -9.8029895073        6.7492102781        0.3884144230
