117

 C       -13.7784643892        7.3578746342       -1.6463039176
 C       -13.0445190077        6.6438306841       -0.5632745925
 O       -12.1134756502        7.0871335282        0.0479129387
 C       -13.4896051398        5.1794675164       -0.3808679583
 C       -12.4217008052        4.4144559629       -1.3150006990
 O       -12.4724227721        4.4464788398       -2.5117639563
 C       -11.1737461540        3.9056563015       -0.4770044843
 C        -9.9856180247        3.2975983733       -1.2701998132
 C        -9.1116533341        4.2383209121       -2.0400703158
 O        -9.0635053356        5.4372247724       -1.7354495658
 C        -8.2873069101        3.7252937571       -3.2240640582
 C        -7.6844559797        2.2648272837       -2.9443013005
 O        -7.7805730188        1.7396718257       -1.9025616325
 C        -7.0106859895        1.7049610270       -4.2271625526
 C        -7.2195031357        0.1870500023       -4.6143921627
 C        -8.7796365174        0.0447186109       -4.9144383187
 O        -9.2555433406        0.7123354830       -5.7830246148
 C        -9.6479938539       -0.9650421276       -4.0707936508
 C       -10.4189867922       -0.0361309601       -2.9266930749
 O       -10.9744657411        1.0139220577       -3.2219302705
 C       -10.4173763264       -0.5830875824       -1.4881652972
 C       -11.4847893418       -0.0909567782       -0.4662190687
 C       -11.5523495732       -1.1107126978        0.7370041151
 O       -10.8738076321       -2.1053793453        0.8127842120
 C       -12.6216616105       -0.8412981730        1.9380598999
 C       -12.1637593601        0.4611222668        2.7153151260
 O       -12.4511558108        1.5635925258        2.2659683984
 C       -11.2373893089        0.2602601657        3.8694356937
 C       -10.7506034954        1.5109313194        4.6130620693
 C       -10.2407608306        2.6212057780        3.6815289576
 O        -9.8676326405        2.4474580589        2.5388200469
 C        -9.8531948917        4.1160812422        4.2491083682
 C        -9.3365879542        4.8487553384        3.0158457349
 O        -9.9589055202        5.7886596669        2.5973647533
 C        -7.9225129655        4.6416797323        2.4409650283
 C        -7.0278586627        5.8464309086        2.8746848744
 C        -7.3458224737        7.0467456041        1.8566725742
 O        -7.5146703387        6.7777418916        0.6864791887
 C        -7.1915009664        8.5264830743        2.2580411569
 C        -8.1914244780        9.3554604794        1.4091466067
 O        -9.0671133878        8.8397239678        0.7686707478
 C        -7.9968185497       10.8530937204        1.3617401194
 C        -7.5110299856        8.8347247837        3.7297769878
 C        -5.7546731616        8.9549475607        1.9232196884
 C       -11.0880105005        4.9949227716        4.8878400611
 C        -8.8182384710        3.9391228725        5.3975625058
 C       -14.0486732747       -0.6344836066        1.3234895275
 C       -12.6999467378       -2.0901739239        2.8296227111
 C       -10.6909903786       -1.4897146663       -5.0526758522
 C        -8.8909403044       -2.0791721901       -3.3971788111
 C        -9.3922786412        3.5958189676       -4.3171524002
 C        -7.2234622542        4.7809811041       -3.6874440761
 C       -13.3604968431        4.8014844442        1.1082232945
 C       -14.8304934771        4.7460712557       -0.9044233822
 H       -13.3650607188        8.2067560409       -2.0102214622
 H       -14.7685284311        7.5569200598       -1.3069500869
 H       -13.8961294313        6.7056598056       -2.5448212953
 H       -11.5103258206        3.1716214573        0.2529898799
 H       -10.8606097412        4.7846121460        0.1221643274
 H       -10.4221434141        2.4745118316       -1.9181320110
 H        -9.3070395743        2.8642626255       -0.5185824705
 H        -5.9554805067        1.8254992448       -3.9403571855
 H        -7.3634560387        2.3038641201       -5.0987846751
 H        -6.9141183931       -0.4169066927       -3.7477025280
 H        -6.6150762518       -0.0753625963       -5.4405740041
 H        -9.4301669178       -0.3212097056       -1.1406495273
 H       -10.4621498310       -1.6937628914       -1.4765918130
 H       -12.5477251464       -0.0253066531       -0.8535537184
 H       -11.3592845210        0.9325668636       -0.0846227473
 H       -10.3986547768       -0.2226194258        3.4247974774
 H       -11.5658852348       -0.5193978350        4.6127681614
 H        -9.8313498612        1.3247036532        5.2645287905
 H       -11.5240910535        1.7212205037        5.3509730826
 H        -7.9959069080        4.6823971547        1.3756025044
 H        -7.4765662379        3.7327260122        2.8047396006
 H        -5.9169512443        5.6958314620        2.8800456652
 H        -7.1121980321        6.0737043822        3.9831706997
 H        -8.9516836600       11.3797100975        1.1182081557
 H        -7.0789771783       11.1345471344        0.8299738843
 H        -7.7674337067       11.2677199953        2.3608831421
 H        -6.7547740370        8.4452196130        4.4142164232
 H        -8.4867843241        8.4843047760        4.0982188514
 H        -7.5145651373        9.9177897833        3.7962485520
 H        -5.0522317563        8.1986313326        2.2664852599
 H        -5.6340309833        9.9439265260        2.3812748900
 H        -5.6518941895        8.9282756444        0.7731733588
 H       -12.0148696756        4.8935051695        4.2659674085
 H       -10.6861667960        5.9618594708        5.1129928199
 H       -11.2778252620        4.5112568205        5.8529694225
 H        -8.6630869106        4.8727485168        5.7763195472
 H        -7.8381079207        3.5067394304        5.0478543997
 H        -9.3295616676        3.4539813202        6.2249374211
 H       -14.1956305360        0.3905022720        1.0070195238
 H       -14.8026777378       -0.8454048849        2.1364444810
 H       -14.1383438279       -1.3488816755        0.5395993884
 H       -11.7943188221       -2.1675894724        3.4557530311
 H       -12.7688201271       -3.0192026095        2.1592248686
 H       -13.6005593892       -2.1012200475        3.4939218409
 H       -10.1991959067       -2.1428553420       -5.8322862122
 H       -10.9756792129       -0.5997482142       -5.5733037594
 H       -11.5156974213       -1.8775082013       -4.5537605454
 H        -8.2297427035       -1.8327547955       -2.6120337657
 H        -8.2135795972       -2.5883506485       -4.0157902883
 H        -9.5898776318       -2.8430186608       -2.9024171936
 H        -9.8296409245        4.5805595913       -4.4895927085
 H       -10.1528590183        2.8464592681       -4.0429847926
 H        -8.9130316720        3.3252324037       -5.2968567668
 H        -7.0797050965        4.6798722113       -4.8080613367
 H        -6.2788360428        4.7761127835       -3.1525035922
 H        -7.6899756303        5.7852142890       -3.6167732201
 H       -12.4650895386        5.2972127735        1.4874687517
 H       -13.3766304716        3.7316203894        1.3724845955
 H       -14.2283643465        5.1551228668        1.5996704952
 H       -14.9464144583        4.7998706116       -1.9872681551
 H       -15.5290863384        5.5300372598       -0.5493501322
 H       -15.1137954586        3.7682793226       -0.6290878540
 Na       -9.8928875709        6.7762981436        0.1773336531
