117

 C       -15.2242266556        7.0887349918       -0.8388098736
 C       -13.7934901352        7.0728277799       -0.1235305446
 O       -13.3809573029        5.9913144384        0.1117382212
 C       -13.1984418679        8.4724424027        0.4068292764
 C       -12.5863602634        8.1851326445        1.8714661552
 O       -11.8868425636        7.2146334084        2.0864959722
 C       -12.7739081416        9.2484717132        2.9820628692
 C       -12.8731537962        8.4799961268        4.1925406338
 C       -14.2910503848        7.6906769019        4.4210446785
 O       -15.3529755457        8.2055582260        4.2841932716
 C       -14.2515751629        6.2882557205        5.2363234668
 C       -13.9520377871        5.2332544036        4.2703115562
 O       -12.8024446021        5.2083646691        3.7541505557
 C       -14.9829237783        4.2789502788        3.7215788107
 C       -14.4590313029        2.7782201360        4.1289277146
 C       -13.9633411894        1.9829634035        2.8570884276
 O       -13.5814447821        2.6541457888        1.8662538855
 C       -13.7035726377        0.4962971906        2.8248040988
 C       -12.1513237727        0.0540481897        2.8962931894
 O       -11.8950048303       -1.0818992806        3.1397449045
 C       -11.1533830408        1.0581749704        2.3604509335
 C       -10.4908420559        2.1131590138        3.2703168710
 C        -9.5489107318        3.0373585969        2.5515268413
 O        -9.9445434436        3.9259135252        1.8731610678
 C        -8.0190848277        2.7495509519        2.4260266998
 C        -7.8734586323        1.9123842781        1.0819707522
 O        -8.4615666020        0.8869493994        1.1515700416
 C        -7.4544680564        2.5348887515       -0.2566624335
 C        -6.9529583950        1.5989061359       -1.4317890807
 C        -7.5299183104        2.0707910647       -2.7807612492
 O        -8.6908435630        2.3768855058       -3.0019971788
 C        -6.5191092276        2.8293709394       -4.0313757825
 C        -5.0739440955        2.0015025885       -3.9564286877
 O        -4.2543037889        2.4272051702       -3.1968033854
 C        -4.7931066781        0.6935533717       -4.7478443309
 C        -4.0827320111        1.0667747453       -6.0659480550
 C        -3.5533885883       -0.0959254401       -7.0664503080
 O        -3.7342961783       -1.2697205111       -6.8193822460
 C        -2.5813484973        0.4716894403       -8.2558068693
 C        -3.6728998394        0.6064232317       -9.4171530901
 O        -3.9501237549        1.7745284186       -9.6111619074
 C        -4.0789509737       -0.6948490144      -10.1299272525
 C        -1.7537511527        1.7969410385       -8.2441855955
 C        -1.5663505938       -0.7019328615       -8.5688185601
 C        -7.1969642548        2.6144437689       -5.3661283506
 C        -6.4043396261        4.3033952102       -3.6820975011
 C        -7.3541006585        4.1705662374        2.3891075614
 C        -7.3837549528        1.8902535926        3.7045551624
 C       -14.6496679248       -0.0946938766        3.9506324704
 C       -14.2528010822        0.0007366585        1.4272905697
 C       -13.2668592611        6.3308990257        6.3572643779
 C       -15.7348755535        5.9712052659        5.8372523012
 C       -11.9154204131        8.9778150992       -0.3305578602
 C       -14.3099529757        9.6143845795        0.4230964095
 H       -15.3045500285        6.4569235177       -1.7108548863
 H       -15.6404170211        8.1564343972       -1.0079538904
 H       -15.9014674281        6.7859099814       -0.0035709349
 H       -13.7151665194        9.9098934271        2.8869994625
 H       -11.9165255053        9.9354879116        3.0691035915
 H       -12.7922957317        9.0529856641        5.1402129672
 H       -12.0435129725        7.6921860189        4.2572640238
 H       -15.1110377070        4.2604426056        2.6264996058
 H       -15.9110290349        4.4003920464        4.2349052742
 H       -15.2602321254        2.3073444269        4.7816496758
 H       -13.5449398750        2.8174028377        4.7831045443
 H       -11.4840772324        1.7676368073        1.5596695957
 H       -10.4276831401        0.3467793571        1.9229132305
 H        -9.9044747244        1.7361583971        4.1418251468
 H       -11.3280728405        2.6297778632        3.6958674126
 H        -6.8145396686        3.3856204470       -0.2876264289
 H        -8.4189773429        2.8114872690       -0.5428857818
 H        -7.3686091573        0.6719336607       -1.0317139135
 H        -5.8495886778        1.7715626963       -1.4256824185
 H        -5.7267235464        0.0849169094       -4.8331252955
 H        -4.0982566412        0.1711695457       -4.0810781677
 H        -3.0966259728        1.3434503403       -5.6776853005
 H        -4.6416925079        1.9203397174       -6.4677150529
 H        -4.7117116286       -0.5818344975      -10.9475374190
 H        -4.5534159335       -1.2075338995       -9.3077050477
 H        -3.1861442050       -1.3463491452      -10.3498746014
 H        -0.6956920699        1.5526813279       -8.1736399307
 H        -2.0482291779        2.2746390138       -7.3665769476
 H        -2.1489588903        2.3580320928       -9.0512758751
 H        -1.2838925521       -0.6407089603       -9.5865151591
 H        -2.1073827417       -1.5948096226       -8.3135981750
 H        -0.7044677937       -0.5936006188       -7.8612804185
 H        -8.0507444186        3.1833147437       -5.4506893795
 H        -7.6366749199        1.6279610519       -5.3980655745
 H        -6.4875509919        3.0332014273       -6.2215249299
 H        -5.7983070463        4.6572634281       -2.7955397902
 H        -7.4007218015        4.7760719558       -3.8324233090
 H        -5.7654436570        4.6092435787       -4.4697463766
 H        -6.2459245396        4.2368087171        2.5493780905
 H        -7.7940638966        4.8333948009        3.0718387181
 H        -7.5216698587        4.6005249865        1.4671466113
 H        -7.3892699058        0.7987993224        3.5459063303
 H        -7.7344628671        2.0620273775        4.7601661794
 H        -6.3109396164        2.1610089312        3.8987265659
 H       -15.7274672415        0.1685494154        3.8499229054
 H       -14.3855569478        0.3238569378        4.9493800621
 H       -14.4544718317       -1.1905474628        3.9645244109
 H       -13.6540968382       -0.8414163253        1.0729751902
 H       -14.0539350549        0.5546469511        0.4976044686
 H       -15.3365579573       -0.0982767057        1.4036609966
 H       -13.2280090070        5.2719620824        6.5975714318
 H       -13.3064070727        6.9848986633        7.2188298074
 H       -12.2938407139        6.4003821461        5.9081569871
 H       -15.9287951510        6.6108017734        6.7749115703
 H       -16.0815757435        4.9968195568        5.9606223329
 H       -16.4473640549        6.3323780434        5.1450711510
 H       -11.3529006883        8.1616045421       -0.7790872232
 H       -11.0895927245        9.3851298360        0.3102946777
 H       -12.0391229095        9.7714728809       -1.0498767890
 H       -14.0460406569       10.4781986715        1.1051914309
 H       -15.2388492088        9.1082976083        0.7978090645
 H       -14.5010517279       10.0666811393       -0.5380560644
 Na      -12.2499896583        4.8609244116        1.5489858491
