117

 C       -13.8533349113        7.5222760410       -2.1153804229
 C       -12.8786643027        6.7577063431       -1.1844709502
 O       -11.7590122981        7.2175292949       -0.9637111812
 C       -13.2771389899        5.5150518682       -0.3835624513
 C       -12.4213488704        4.3794060226       -1.0434456936
 O       -12.5523503137        4.1223651029       -2.2632725748
 C       -11.3293806056        3.6267605438       -0.1016959853
 C       -10.0933759046        3.0590927886       -0.8739709394
 C        -9.4180389301        4.1026328995       -1.7658411636
 O        -9.3038442760        5.2803388290       -1.6008617001
 C        -8.8630767365        3.6639637153       -3.2010729817
 C        -7.7193953270        2.6320481863       -2.9255429762
 O        -7.0091643669        2.8191679798       -1.9229193154
 C        -7.2913195278        1.6166598029       -4.0409735392
 C        -7.7688378739        0.1757795033       -3.7005141325
 C        -8.9777841067       -0.1906694714       -4.5944905107
 O        -9.1962482021        0.2531481386       -5.7178183997
 C        -9.8629809391       -1.3521427218       -3.9795212274
 C       -10.3167752239       -0.8880939156       -2.5665564153
 O       -10.8399959988        0.2055924897       -2.6017388829
 C       -10.1141593439       -1.6611267798       -1.2923944745
 C       -11.2496561234       -1.1094105715       -0.3263741753
 C       -11.0337317414       -1.2887831501        1.1701285330
 O       -10.0095276933       -1.4804942007        1.7283519046
 C       -12.3644070523       -1.0114289259        2.1410070630
 C       -12.1724798467        0.3737606561        2.7493429455
 O       -12.7433658161        1.2860892887        2.2087142848
 C       -11.2123850908        0.5379731994        3.9254456212
 C       -11.1799125606        2.0773006986        4.2457973314
 C        -9.9364508731        2.7285660925        3.5688143260
 O        -9.3113030713        2.2465613285        2.6536529057
 C        -9.6910623468        4.2287949369        4.1045417799
 C        -9.1030187297        5.0344713128        2.9281668339
 O        -9.9280561589        5.7459486701        2.3099713833
 C        -7.6052029507        4.9781178873        2.4642635973
 C        -6.9077887829        6.3670987766        2.6313366133
 C        -7.2794942442        7.3284891070        1.5183192848
 O        -7.4610169315        7.0554241438        0.3458162093
 C        -7.4061636864        8.8742923605        1.8876431728
 C        -8.4555303750        9.5458872277        1.0908369398
 O        -9.4628854524        9.0273727795        0.7024975723
 C        -8.3090364845       11.0432263026        0.9326293908
 C        -7.7510703465        9.2940193094        3.3308931523
 C        -5.9400746910        9.3150152868        1.4924089527
 C       -11.0467013440        4.7608167819        4.6128946572
 C        -8.6567600574        4.2679521031        5.3248225802
 C       -13.7228291164       -0.9427030527        1.3461941014
 C       -12.4065010955       -2.1715752089        3.1467946763
 C       -11.0532372924       -1.5409145478       -4.8552705136
 C        -8.9085981706       -2.5270378261       -3.9188513625
 C       -10.0559127100        3.0559864945       -3.9799465924
 C        -8.2046546707        4.7744873761       -3.9582140248
 C       -12.9871457002        5.6452659248        1.1255567773
 C       -14.7343266613        5.1075110425       -0.5321621150
 H       -13.4373812549        8.3199374750       -2.6105663436
 H       -14.6659593792        7.9254739357       -1.5666746851
 H       -14.3705154019        6.8489553606       -2.7666569932
 H       -11.8698218015        2.7974194558        0.3353172075
 H       -11.0730141417        4.3635000157        0.6646021787
 H       -10.3320469251        2.1258178053       -1.4459920213
 H        -9.3137406593        2.6283562077       -0.1938654210
 H        -6.1543015546        1.5876091702       -4.0790442026
 H        -7.5737730705        1.9052896964       -5.1100605202
 H        -7.9504748777        0.0414781297       -2.6573678423
 H        -7.0569747023       -0.6201007170       -3.9652521530
 H        -9.1491885919       -1.3670065003       -0.9022390115
 H       -10.1353679737       -2.6918890948       -1.5106692763
 H       -12.1495306425       -1.4552962129       -0.7235291623
 H       -11.1031882722        0.0264765583       -0.3692971565
 H       -10.1578061147        0.2317073449        3.7036546735
 H       -11.5996531727       -0.0018789333        4.7808602115
 H       -11.3417370036        2.1807299051        5.2960209152
 H       -12.0829758404        2.5139811783        3.6960698429
 H        -7.6365981467        4.6844865926        1.4338961751
 H        -7.0376634905        4.1628017525        2.8894081266
 H        -5.8388206723        6.1314263411        2.4688626602
 H        -7.1519193056        6.8356431187        3.5706779738
 H        -9.2198477859       11.4379528778        0.5834252658
 H        -7.6496712206       11.3261094407        0.0811631911
 H        -7.9458651846       11.6248685583        1.8055341497
 H        -6.8803227888        9.4186547528        3.9620164297
 H        -8.4495432301        8.5961857369        3.7438498555
 H        -8.2808284495       10.2473880890        3.3793386467
 H        -5.2970778480        8.8703831375        2.2773439618
 H        -5.8534458257       10.4013443349        1.5593063667
 H        -5.6609729754        9.0576125876        0.5245545193
 H       -11.9004648830        4.4695538357        3.9999991491
 H       -11.1261254485        5.8595992503        4.6116124913
 H       -11.1085388933        4.3450465742        5.6315167602
 H        -8.2998764906        5.3353175551        5.3800112175
 H        -7.9156077311        3.5652050827        5.2120504576
 H        -9.2040108534        3.9664532460        6.1823132244
 H       -13.6769605175       -0.3733741334        0.3884737543
 H       -14.4174407967       -0.4319832279        1.9890625532
 H       -14.0857442468       -2.0069493787        1.2130518651
 H       -11.5649539522       -2.1213054854        3.8086164602
 H       -12.3418819938       -3.0692493615        2.6031281017
 H       -13.3407131542       -2.1057403575        3.6794523431
 H       -10.7371877850       -1.6571363918       -5.8670080770
 H       -11.7303943655       -0.6871669807       -4.7232316931
 H       -11.5788294476       -2.5565201937       -4.7013054265
 H        -8.1239205602       -2.3218223055       -3.1673370320
 H        -8.3839198313       -2.7036316752       -4.8917756641
 H        -9.2446985837       -3.4614148738       -3.7002528584
 H       -10.9968556040        3.5616577864       -3.7281084228
 H       -10.1497472851        2.0118219657       -3.7143193227
 H        -9.9558593563        3.1244726600       -5.0344851606
 H        -8.1868363371        4.5080325853       -5.0107023311
 H        -7.1901224967        5.0127377329       -3.6295112455
 H        -8.8540251596        5.6413379738       -3.7701959364
 H       -12.0635348315        6.1916442000        1.2971064930
 H       -13.0871834806        4.7103390714        1.5653441814
 H       -13.7574592736        6.3678810457        1.4672884720
 H       -14.9030283531        4.8406820413       -1.5527475350
 H       -15.3539955690        5.9197728173       -0.2507757824
 H       -15.0278243579        4.3219527497        0.1786188772
 Na       -9.8430898037        6.7305262893        0.0421765417
