117

 C       -13.8729522348        7.4162683598       -1.9920578253
 C       -12.8857205359        6.7045122537       -1.0488907967
 O       -11.7787613566        7.2560830663       -0.9400926218
 C       -13.2538836866        5.4305390945       -0.3559568487
 C       -12.3265555517        4.3365410000       -1.0537448535
 O       -12.4707763958        4.1087884993       -2.2327899510
 C       -11.2321578522        3.5711995793       -0.2251816490
 C       -10.0559656215        3.0992185236       -0.9617889814
 C        -9.4297304321        4.1302588951       -1.8416585190
 O        -9.3486485670        5.2846922401       -1.4625692711
 C        -8.8520879009        3.6650155559       -3.2565156309
 C        -7.6953613528        2.6237222580       -2.9085102059
 O        -7.0317340401        2.7914932981       -1.8788466238
 C        -7.3430913198        1.7022416879       -3.9816925417
 C        -7.6718898264        0.2063825756       -3.8232441320
 C        -8.8698118478       -0.1888952880       -4.6599733188
 O        -9.1514281216        0.3780369591       -5.7208790255
 C        -9.7759120274       -1.3335958442       -4.1016735446
 C       -10.3323548293       -0.7290522344       -2.6479757881
 O       -10.8932325334        0.3653394785       -2.6792750176
 C       -10.1437649854       -1.5535347503       -1.3160790194
 C       -11.2430117938       -0.8694896422       -0.3058748842
 C       -11.1103604234       -1.2713348087        1.1716393386
 O       -10.1053163281       -1.5323001230        1.7800478002
 C       -12.4710570875       -1.1020694204        2.0903636221
 C       -12.1757333003        0.3601353193        2.7218037242
 O       -12.7257310103        1.3865534894        2.3068587175
 C       -11.2552390430        0.4718301233        3.9159908966
 C       -11.0212484568        1.9618629247        4.4096442297
 C       -10.0484004971        2.7449713209        3.6140403951
 O        -9.3551584860        2.2543493616        2.7491383105
 C        -9.7665172959        4.1972566695        4.1493174756
 C        -9.2421476829        5.0651923770        2.8729176785
 O        -9.9913884496        5.7471850406        2.2017319325
 C        -7.7129460954        4.9617996311        2.4777176775
 C        -6.9586248582        6.2176121978        2.6683029609
 C        -7.2919766067        7.2884131512        1.5991894536
 O        -7.3700958022        6.9238901358        0.4388197650
 C        -7.3202336394        8.8757469243        1.9779563384
 C        -8.5216005427        9.5973051720        1.0428522569
 O        -9.4564474381        8.9078819916        0.6020051136
 C        -8.3487684992       11.0715969582        0.9108004373
 C        -7.6310001867        9.1283031071        3.4342178026
 C        -5.8960963828        9.4439319952        1.5296895904
 C       -11.0125553342        4.9303285458        4.5935223232
 C        -8.6687836445        4.1632549825        5.2388857656
 C       -13.7500292939       -1.0655856061        1.2703805107
 C       -12.5242956390       -2.1673422655        3.2009761841
 C       -11.0526640642       -1.5325140589       -5.0185604944
 C        -8.9668925429       -2.6329039291       -3.9015001772
 C       -10.1123609889        3.1880602605       -4.0375465034
 C        -8.0472789584        4.7868809312       -4.0098315600
 C       -12.9620584187        5.6380420557        1.1357801711
 C       -14.8280681601        5.1063287903       -0.6001191353
 H       -13.3234837142        8.2576868567       -2.5424650169
 H       -14.6693947742        7.9461643312       -1.4803974325
 H       -14.3841957821        6.8048050978       -2.6368093964
 H       -11.6990683961        2.7276568147        0.2063917247
 H       -10.9563393845        4.2865727734        0.5826544832
 H       -10.1474802515        2.0887931195       -1.4309672514
 H        -9.3346223982        2.8825350852       -0.1846028485
 H        -6.2832667855        1.7554152418       -4.2053896722
 H        -7.8409304013        2.1079374560       -4.9371006478
 H        -7.8552565404       -0.0793745221       -2.7634547205
 H        -6.8614625585       -0.4498902914       -4.1446135303
 H        -9.1181095370       -1.3776982475       -1.0544961222
 H       -10.3611361673       -2.5981923482       -1.4660695574
 H       -12.1209189719       -1.3376717348       -0.6974010283
 H       -11.2229957373        0.2401359828       -0.3570237175
 H       -10.2808296648        0.1427587402        3.5174831985
 H       -11.5222498761       -0.1291224967        4.8591720136
 H       -10.8382340432        1.9115325381        5.4918323820
 H       -11.9769855819        2.4625958838        4.2766204483
 H        -7.6986997617        4.6003367817        1.4541813412
 H        -7.1933069453        4.1358018969        3.0268509825
 H        -5.9705919175        5.9277915660        2.4466543394
 H        -7.1069632801        6.5620794319        3.6615027926
 H        -9.1519569186       11.5511571981        0.3405671498
 H        -7.4557776175       11.4000686894        0.3970671365
 H        -8.2987509383       11.4714022100        1.8756524581
 H        -6.8222518782        9.0203086028        4.1678035033
 H        -8.4738033276        8.5412683724        3.6811600999
 H        -7.9955262137       10.1584133334        3.5612335263
 H        -5.1707119060        9.1553913044        2.2482170232
 H        -5.8819980363       10.5351904587        1.5247968125
 H        -5.6874972512        9.0958703514        0.5359054371
 H       -11.6929640427        4.9880754958        3.8186405108
 H       -10.7638081341        6.0176011526        4.7567192792
 H       -11.3748078213        4.4815773535        5.4848260681
 H        -8.5296743309        5.2119112630        5.4535574437
 H        -7.7859720563        3.7001772799        4.8021825650
 H        -8.9632958654        3.5135204939        6.0600188955
 H       -13.6059859880       -0.3013582075        0.4718183431
 H       -14.5611448966       -0.7764139917        1.9139679935
 H       -13.9479710479       -2.0285007805        0.8622414735
 H       -11.7432997770       -1.9048590820        3.9082334288
 H       -12.3168334615       -3.1160469939        2.8257320617
 H       -13.4404029739       -2.0999195426        3.6780587471
 H       -10.8137772463       -1.7433273501       -6.0644613575
 H       -11.6633986089       -0.5768822526       -4.9093898924
 H       -11.6358316948       -2.4048142439       -4.7659750175
 H        -8.2460500542       -2.5127754867       -3.1067856540
 H        -8.4498929686       -3.0014660603       -4.7849333377
 H        -9.4864891652       -3.5635655216       -3.6357004025
 H       -10.8905249458        3.8907737039       -3.8562976969
 H       -10.4506517466        2.1598550214       -3.8053710153
 H        -9.9173366527        3.2063561039       -5.0812185116
 H        -7.8144483590        4.4497966038       -4.9629952814
 H        -7.0742616609        4.9337086212       -3.4736789747
 H        -8.5676695990        5.6977553156       -4.0254812142
 H       -11.9746056259        6.0141428494        1.3685424735
 H       -13.2592497458        4.6711264296        1.6929921497
 H       -13.5733175537        6.4662638774        1.3276621112
 H       -15.0912206065        5.1024155279       -1.6661822673
 H       -15.3975402478        5.9079959103       -0.0800960557
 H       -15.2237171459        4.2460249836       -0.0764825382
 Na       -9.7422729980        6.7007427110        0.0730993110
