117

 C       -13.8454282424        7.3861421453       -1.7963888069
 C       -13.0815479748        6.7298724068       -0.6790088245
 O       -12.0550461372        7.2981401799       -0.2474031509
 C       -13.4253876545        5.2545955664       -0.3502224790
 C       -12.3450335561        4.3018153075       -1.1273129175
 O       -12.3909756743        4.2237220327       -2.3602784218
 C       -11.1556142144        3.6553522898       -0.3512936485
 C        -9.9815415323        3.2880560943       -1.2999153348
 C        -9.2665453582        4.2964739095       -2.1135917183
 O        -9.2163601123        5.4690275088       -1.8179890235
 C        -8.5192000205        3.7262960620       -3.3050396944
 C        -7.7760949160        2.3555558663       -3.0484441960
 O        -7.6197811694        1.8669342316       -1.9151959142
 C        -6.8849664742        1.6984076242       -4.1593461381
 C        -7.2729285080        0.2569451554       -4.2059901178
 C        -8.7111414425        0.0197676956       -4.7810201189
 O        -9.1345377354        0.5690898697       -5.8094827894
 C        -9.7183843145       -0.8974659516       -3.9950164064
 C       -10.5184219358       -0.1207854502       -2.8833189507
 O       -11.0370899449        0.9521614334       -3.0740349395
 C       -10.5484706100       -0.7175072747       -1.4688745327
 C       -11.4217862326       -0.1627885125       -0.3945571462
 C       -11.4271674716       -1.1114653923        0.8420038667
 O       -10.6439096741       -1.9950693282        0.9623399506
 C       -12.5208855022       -0.9098451572        1.9734155533
 C       -12.1768973759        0.4211850722        2.7226835889
 O       -12.5500159954        1.4992764892        2.3476557413
 C       -11.1769440075        0.3179087517        3.9395916411
 C       -10.8916780786        1.7167083507        4.6330927019
 C       -10.1780450940        2.6841756099        3.6279383531
 O        -9.7891440494        2.3675268150        2.5309088409
 C        -9.9050512212        4.1249309930        4.2300622321
 C        -9.3921312748        5.0072762432        3.0192310563
 O       -10.1932525222        5.7515175866        2.4061672835
 C        -7.9429594086        4.7866805923        2.5555056881
 C        -7.0225216156        5.9637850576        2.8892933123
 C        -7.1859456586        7.0401595252        1.7731586092
 O        -7.4018198595        6.7261522119        0.6043334715
 C        -7.1711474352        8.6369494899        2.1164634896
 C        -8.2108959495        9.4925839003        1.2438399063
 O        -9.0994612929        8.9115503283        0.6203754063
 C        -8.2472330567       11.0293406749        1.3374111969
 C        -7.4430219112        8.7887558943        3.6102486234
 C        -5.7504193668        9.1939987605        1.8974195478
 C       -11.1268496539        4.7433269040        4.9348218993
 C        -8.7507009354        3.8344711865        5.2943353426
 C       -13.9305641690       -0.6623717930        1.3541770109
 C       -12.5209651547       -2.1252926529        2.8860359668
 C       -10.8594854664       -1.4365784722       -4.9418479660
 C        -8.8875214522       -2.1021788326       -3.4393474900
 C        -9.6589749689        3.4852801975       -4.4206422246
 C        -7.3528399633        4.5566781796       -3.8625330125
 C       -13.2549124239        4.9505863952        1.1668459651
 C       -14.8353174928        4.7681680323       -0.8237986878
 H       -13.4155454293        8.3669774685       -2.2042148963
 H       -14.9787923821        7.4888105754       -1.6896885564
 H       -13.6790647834        6.6903397214       -2.6438962534
 H       -11.4391232484        2.7186135097        0.1901073509
 H       -10.9113707415        4.4119147175        0.4018131651
 H       -10.2912575499        2.4320269018       -1.8261072728
 H        -9.1607009209        2.9494985340       -0.6393476495
 H        -5.8789657338        1.7849847020       -3.7822529348
 H        -7.0721484011        2.1107360098       -5.0941025172
 H        -7.1751131945       -0.2018872846       -3.2189194254
 H        -6.5940887587       -0.3249284558       -4.9085650429
 H        -9.4632571383       -0.6032263327       -1.1502979073
 H       -10.7579590838       -1.8101425369       -1.5474331842
 H       -12.3852765004        0.1746526738       -0.7174229728
 H       -10.9730471567        0.7267156060        0.0644148270
 H       -10.1198801545        0.0199626422        3.7326630603
 H       -11.5350314130       -0.4155986630        4.6443664472
 H       -10.2577198498        1.6504531791        5.5022874707
 H       -11.8241497500        2.1805632873        4.9983973315
 H        -7.9595890409        4.8354218409        1.4290036717
 H        -7.5014541564        3.8638565812        2.9616162070
 H        -5.9968096932        5.5697844257        2.7995569420
 H        -6.9573032928        6.3416830042        3.8876818483
 H        -9.0748211392       11.3399469459        0.7893473247
 H        -7.3168808289       11.4513781052        0.9984772936
 H        -8.3469229207       11.5081830151        2.3103285702
 H        -6.7981765845        8.2124074730        4.2434915244
 H        -8.4360334323        8.3942130412        3.8013409044
 H        -7.4968921282        9.8222699974        3.9097555414
 H        -5.0467915355        8.9420017596        2.7156874629
 H        -5.9102329304       10.2637644630        1.9223192580
 H        -5.3607306254        8.8173227561        1.0134471996
 H       -12.0073899752        4.3254692646        4.5079874684
 H       -11.0151691661        5.7838991163        4.7140399160
 H       -11.0927826873        4.6525861697        6.0014566012
 H        -8.1988306868        4.7785064952        5.6820598685
 H        -8.1038522257        3.2403542426        4.7254395170
 H        -9.2008653715        3.3558501922        6.1529790576
 H       -13.8448505333        0.0763899361        0.5893189388
 H       -14.5371749334       -0.3294909216        2.1394376741
 H       -14.2974349557       -1.6080673526        0.9492330950
 H       -11.7131441030       -2.0808168648        3.5866524213
 H       -12.4515205613       -3.0086682720        2.3027434029
 H       -13.4445522798       -2.1472558574        3.4579554304
 H       -10.3682936522       -1.8477631922       -5.7586850647
 H       -11.5343202936       -0.6991840902       -5.3459339792
 H       -11.4149670544       -2.2196558324       -4.3405962618
 H        -8.1521125103       -1.9660784113       -2.6017786200
 H        -8.1987187025       -2.5252957001       -4.2330681793
 H        -9.4248999677       -2.9295744680       -3.0967295997
 H       -10.3878316547        4.2770943983       -4.2315462632
 H       -10.1366380265        2.5329853820       -4.2961368381
 H        -9.3076705204        3.5975476513       -5.4230105255
 H        -7.1518927620        4.3289607206       -4.8672113453
 H        -6.4906000499        4.4645319238       -3.2361592435
 H        -7.6795977994        5.5668173128       -3.8694747902
 H       -12.2210604036        5.1490624419        1.5074395376
 H       -13.4911797284        3.9437650661        1.4238309882
 H       -14.0665484337        5.5827822682        1.7082555652
 H       -15.0022139778        4.8437515110       -1.9141112434
 H       -15.6426810878        5.3387802274       -0.3665303143
 H       -14.9073929103        3.6493664644       -0.6204682066
 Na       -9.7343775406        6.6479157647        0.2085042904
