117

 C       -13.6242173502        7.1873199327       -2.6967887622
 C       -12.9798059071        6.9576261879       -1.3431974463
 O       -11.9192537018        7.4998035485       -1.0088346216
 C       -13.6370878689        5.7449663855       -0.4221979449
 C       -12.6982926741        4.4758145565       -0.9822659887
 O       -12.7723553639        4.1963009377       -2.1482606262
 C       -11.5861246964        3.9518961037       -0.0733197526
 C       -10.4196292651        3.3310976129       -0.8736057111
 C        -9.8753500434        4.2627800910       -1.9575894074
 O        -9.8540000855        5.5047791092       -1.8379123513
 C        -9.2822086107        3.5032443184       -3.2569181545
 C        -8.1182385995        2.5650324297       -2.7743258623
 O        -7.8368534650        2.5110978517       -1.6018930396
 C        -7.4913456703        1.5789354896       -3.7517306931
 C        -7.8078552205        0.0639856972       -3.2975829059
 C        -8.8979499858       -0.5871598100       -4.1481736174
 O        -9.3910258019       -0.1264953834       -5.1901143017
 C        -9.5483172501       -1.8555995299       -3.5624572250
 C       -10.1750315843       -1.4724471548       -2.1585540364
 O       -10.4874286664       -0.3215147227       -1.8324988921
 C       -10.4891401567       -2.6627578114       -1.2076307582
 C       -11.5473301032       -2.2317290155       -0.1829491502
 C       -10.8723729637       -1.6043164784        1.0344074167
 O        -9.7133976089       -1.4236113190        1.1662392601
 C       -11.9792875174       -1.1186921764        2.1761476778
 C       -11.8907660218        0.3842248686        2.4910435894
 O       -12.6877350853        1.1722556494        2.0438835612
 C       -10.7238999051        0.8734162574        3.4050696758
 C       -10.7957615718        2.3492680415        3.6516137771
 C        -9.4941478079        3.0646127939        3.4492667823
 O        -8.4962419634        2.6237807690        2.9392005326
 C        -9.3696635556        4.5422692155        4.1359008880
 C        -9.0944816524        5.4290860856        2.8532597007
 O       -10.0073387383        6.0260851848        2.3534604187
 C        -7.6864769582        5.3368323507        2.2513421243
 C        -6.8555718872        6.5967737281        2.4868685377
 C        -7.3226880045        7.6331248439        1.4276838477
 O        -7.4287584838        7.1819223404        0.3183419592
 C        -7.4035725534        9.1894768398        1.6843632089
 C        -8.5054674768        9.8264923362        0.7667411880
 O        -9.4346027030        9.2240552211        0.2200995191
 C        -8.4151313084       11.3706690566        0.4404474342
 C        -7.9003710120        9.4844261771        3.1106601219
 C        -6.0213314538        9.7420517967        1.3804551122
 C       -10.5740302498        5.1109434626        4.8604385672
 C        -8.1126928515        4.4771000315        5.0283690556
 C       -13.4283824325       -1.4392639427        1.6266946345
 C       -11.6850722754       -1.8525881180        3.4645826719
 C       -10.7103660826       -2.3941560271       -4.3777957833
 C        -8.4700327833       -2.9373366420       -3.4153560657
 C       -10.2430605864        2.4791752261       -3.8733575564
 C        -8.8286545125        4.5570663321       -4.2821707887
 C       -13.3421102239        5.9854309856        1.1050482005
 C       -15.0863259562        5.4177361141       -0.6780750808
 H       -12.9098564376        7.8347874197       -3.3035323566
 H       -14.6242042214        7.5713657174       -2.7224547398
 H       -13.6162000997        6.2622484964       -3.1652169839
 H       -12.0696554216        3.2435753176        0.6129460367
 H       -11.3566770886        4.8126414113        0.4665641467
 H       -10.7641269496        2.4120236743       -1.3498185879
 H        -9.5847502428        2.9709962237       -0.1901014264
 H        -6.3601867818        1.7449780239       -3.6315819881
 H        -7.7702854063        1.7162365386       -4.8411337816
 H        -8.1641424718        0.0953024702       -2.2646368626
 H        -6.8907675255       -0.5354120187       -3.3608591237
 H        -9.6101867681       -2.9132005190       -0.6619452822
 H       -10.6136727732       -3.5449494901       -1.8543661704
 H       -12.0961910700       -3.1596237193        0.1523909509
 H       -12.3050907497       -1.5546943178       -0.5228970637
 H        -9.8221404131        0.7463947141        2.7335974479
 H       -10.5498813087        0.2548207452        4.3243877556
 H       -11.1176454422        2.3987392546        4.7036594498
 H       -11.5951150776        2.8907112981        3.1566082297
 H        -7.7750197209        5.1210006790        1.1864921189
 H        -7.2699557669        4.4416862929        2.6568261817
 H        -5.8548130557        6.3111275292        2.2520978549
 H        -6.7953997359        6.9459409846        3.5067030319
 H        -7.4218608794       11.8110165459        0.6396275396
 H        -9.1167420196       12.0329190188        0.9059990959
 H        -8.4739043679       11.4986741782       -0.5916810765
 H        -7.1435436067        9.2060218289        3.8477142694
 H        -8.7710805678        8.8390867508        3.3660596325
 H        -8.1916593210       10.5141755421        3.2415751214
 H        -5.1824205980        9.1467490204        1.6143433151
 H        -5.8356666107       10.6621959686        1.9135260977
 H        -5.9249796974        9.8984444071        0.2769343939
 H       -11.4378293825        5.1259841975        4.2288275188
 H       -10.4104027812        6.1095613892        5.2717247637
 H       -10.9245115120        4.4930828002        5.6584241151
 H        -7.8537475795        5.4364386029        5.3571547396
 H        -7.2244950052        4.0955221050        4.4279923629
 H        -8.3214326037        3.9297873998        5.9757682810
 H       -13.7771056347       -0.8051772361        0.8386872330
 H       -14.1746281649       -1.4666450158        2.4288372125
 H       -13.4397227422       -2.4051771215        1.2286135274
 H       -10.6950142147       -1.6287046168        3.9047351203
 H       -11.7426154952       -2.9295939301        3.2435639663
 H       -12.4678697690       -1.6197748313        4.1606047424
 H       -10.5077772023       -2.2353143563       -5.4641969178
 H       -11.6291070693       -1.7677334366       -4.2664363592
 H       -11.0000453169       -3.3567043708       -4.1221616617
 H        -7.5647051733       -2.6050894533       -2.9255634209
 H        -8.2251304612       -3.2507268667       -4.4131939873
 H        -8.8634232385       -3.8956199593       -2.8897809168
 H       -11.1325417949        3.0308597737       -4.1592141834
 H       -10.6040932526        1.6757518134       -3.2232420591
 H        -9.7772670439        2.0402528133       -4.7834219063
 H        -9.2941573644        4.4087488817       -5.2158902325
 H        -7.7454890347        4.6066401913       -4.3637252090
 H        -9.1739749579        5.4914912046       -3.9449544759
 H       -12.3435520164        6.3394708526        1.1921997700
 H       -13.3286390448        4.9331531785        1.5622743458
 H       -14.1214807821        6.5859626376        1.4943727065
 H       -15.1984104975        5.1382465171       -1.7652135984
 H       -15.7460307103        6.3021523947       -0.4278851406
 H       -15.3072276652        4.5154290399       -0.1032171073
 Na       -9.9626765258        6.9274222878        0.2270059477
