117

 C       -13.4536910590        7.4508834844       -2.6140695652
 C       -13.0852603637        6.9355302271       -1.2607507714
 O       -12.0699404041        7.4173300752       -0.7898801187
 C       -14.0082012660        5.9193546684       -0.4675436196
 C       -13.2560900955        4.6282701451       -0.8706785916
 O       -13.4938681216        4.0686703140       -1.9466368050
 C       -12.1498213968        4.0039928263        0.1064820686
 C       -11.0996079506        3.2395885878       -0.7514920303
 C        -9.9934201520        4.0144364755       -1.5495072516
 O        -9.6462339372        5.1412853373       -1.2793185904
 C        -9.5147882758        3.2913620992       -2.7889208971
 C        -8.3613168224        2.1872925779       -2.4193710955
 O        -8.1132809380        2.0416766757       -1.2564646386
 C        -7.7074309725        1.4619031743       -3.6134114110
 C        -7.6135400709       -0.0243774828       -3.5307342524
 C        -8.9467141718       -0.7322504076       -3.8099855218
 O        -9.7239355000       -0.3488021363       -4.6178309829
 C        -9.1740350703       -2.1105587179       -3.0608176127
 C       -10.2417955465       -1.6963138745       -1.9035251266
 O       -10.5426346036       -0.5416924976       -1.7074519255
 C       -10.7688091330       -2.9201280735       -1.1344403518
 C       -11.6305398284       -2.4870730794        0.0268522459
 C       -10.8677747081       -1.7555881176        1.0839342792
 O        -9.6510717422       -1.7478778900        1.2127256186
 C       -11.7680868143       -1.1025139929        2.2550061251
 C       -11.4216170532        0.4567586242        2.2812495536
 O       -12.3193385463        1.2779123219        2.0955258803
 C       -10.0144655018        1.0128203027        2.5357503684
 C       -10.0982389535        2.4673983624        2.8020829136
 C        -8.9372721790        3.1186000443        3.5473218994
 O        -8.0267981416        2.4593060511        3.9306504655
 C        -9.1015327775        4.6527627362        3.7654794209
 C        -8.8241484107        5.3369018513        2.3830153171
 O        -9.7423699592        5.8144839062        1.7991889137
 C        -7.3758060426        5.4633068371        1.8823277712
 C        -6.9705427777        6.9449257664        2.1032340772
 C        -7.4305372808        7.8567003356        0.9317035650
 O        -7.5589979880        7.4257393595       -0.1959085923
 C        -7.5066666906        9.4447435104        1.2394281536
 C        -8.6743889836       10.0734153676        0.3770676183
 O        -9.5357559381        9.3333668185       -0.1052361677
 C        -8.7535314755       11.5524493542        0.1829621872
 C        -7.7922596193        9.7403188558        2.7651593164
 C        -6.2078033052       10.0558852713        0.8751366809
 C       -10.4904794566        5.0781699856        4.1907669562
 C        -8.0590101304        5.0041733654        4.8540538255
 C       -13.2807052562       -1.1723559613        2.0506089824
 C       -11.2024310971       -1.7892625326        3.4760877927
 C        -9.8218948496       -3.0974163032       -4.0027463091
 C        -7.9155463965       -2.8012098642       -2.4122421420
 C       -10.6131529344        2.5276793628       -3.6031364193
 C        -8.9287853593        4.2791320693       -3.7647516754
 C       -13.8849082427        6.2146535632        1.0262521649
 C       -15.4313392661        5.9313254399       -1.0551978593
 H       -12.5980508127        7.9560037019       -3.0012084210
 H       -14.3465190072        8.1841544883       -2.6390257627
 H       -13.6294448457        6.5945208118       -3.3614071210
 H       -12.6463893580        3.2843652219        0.8351324991
 H       -11.7180346352        4.8038514161        0.6978254334
 H       -11.6749666030        2.7111232867       -1.4769452536
 H       -10.5816364840        2.5382361570       -0.1102716854
 H        -6.7467101228        1.8547868276       -3.6603804365
 H        -8.2754052065        1.7102502434       -4.4908025303
 H        -7.1700467203       -0.2930531204       -2.5541945079
 H        -6.8004451778       -0.2733364072       -4.2291846398
 H        -9.8939547231       -3.5451666521       -0.9092918179
 H       -11.3199603184       -3.4142137296       -2.0077239676
 H       -12.2046960398       -3.3138368525        0.5466547560
 H       -12.4165418107       -1.8643759192       -0.2917397104
 H        -9.1685195148        0.7404090965        1.9168461334
 H        -9.6425226940        0.5463355421        3.4907245748
 H       -10.9866314674        2.5988609274        3.4300101800
 H       -10.2805521461        2.9976005431        1.9108376644
 H        -7.3225560963        5.3375888541        0.7798285819
 H        -6.8466673323        4.7220195441        2.5310273358
 H        -5.8849154610        6.9274074045        2.2133303745
 H        -7.3403750654        7.2986946761        3.0944789913
 H        -9.1151183260       11.7098395631       -0.8422394067
 H        -7.9200661949       12.2815138655        0.3305321333
 H        -9.4787787206       11.8932475103        0.9793824962
 H        -6.9374965489        9.4216719422        3.3665697837
 H        -8.6802516362        9.2158570531        3.0349559323
 H        -7.9476923148       10.8000394552        2.9726083521
 H        -5.3245158150        9.4879230034        1.1741280808
 H        -6.1113832646       11.1262223429        1.1621176713
 H        -6.1310083804       10.2075412378       -0.1833781861
 H       -11.1405354677        5.3383758668        3.3797885788
 H       -10.5605632348        5.9858525182        4.9139025134
 H       -10.9865765996        4.3359734285        4.8097586101
 H        -8.0479477663        6.0811500939        5.0945785513
 H        -7.0699796728        4.7472782572        4.5383553177
 H        -8.1094487584        4.4012504525        5.7628665291
 H       -13.6889411603       -0.7935723503        1.0551480377
 H       -13.8586064315       -0.5709460580        2.7695199452
 H       -13.6562516467       -2.1878822690        2.2098820321
 H       -10.0928157606       -1.6973038050        3.4126492685
 H       -11.4674717099       -2.8255792901        3.5446195935
 H       -11.4892015929       -1.3836836999        4.4131661318
 H        -9.3225665675       -3.1584878945       -4.9288600257
 H       -10.8720805082       -2.7924559621       -4.1868008175
 H        -9.8250961576       -4.1306324724       -3.7002738030
 H        -7.4646935804       -2.0697306694       -1.7402630103
 H        -7.2301781458       -2.9793140567       -3.2571286082
 H        -8.1991783283       -3.6878171346       -1.8579306791
 H       -11.5728918990        2.9821214773       -3.5660974918
 H       -10.6759656311        1.4384246637       -3.3725538862
 H       -10.3907380820        2.6113098046       -4.6484280349
 H        -7.9429774188        4.6256659599       -3.5018855895
 H        -9.6093702884        5.1993821464       -3.7074160410
 H        -8.9236218197        3.8974534905       -4.8089747074
 H       -12.8423128190        6.3666157459        1.3691994862
 H       -14.4430270721        5.3619049392        1.4754324813
 H       -14.4251383160        7.1176663455        1.2813359109
 H       -15.3620872137        5.7911783087       -2.1170212537
 H       -16.0717442724        6.7712954986       -0.7911204599
 H       -15.9394355358        5.0834934432       -0.6673679385
 Na      -10.0590118482        7.0739489621       -0.0647702370
