117

 C       -15.0322559853        7.1627205426       -1.2683814489
 C       -13.8824252174        6.9925848660       -0.3049992393
 O       -13.6546638455        5.8748751942        0.1987347197
 C       -13.1659460255        8.3440961626        0.2880958895
 C       -12.5927650494        7.9293731187        1.8070634513
 O       -11.8458056028        7.0018508657        1.8748531706
 C       -12.7330906822        8.9046807275        2.9772835679
 C       -12.8200005379        8.2928154571        4.4425349674
 C       -14.2879859985        7.8647393137        4.6786460914
 O       -15.2682664043        8.4699553021        4.3578475916
 C       -14.3682055377        6.4362537411        5.4459913239
 C       -13.8911337886        5.3590517359        4.3930509273
 O       -12.7668404103        5.2726814067        4.0065023126
 C       -14.9623606750        4.3692832384        3.8454068003
 C       -14.4053502593        3.0083193487        4.0960705387
 C       -13.9003121688        2.3000659718        2.8566090832
 O       -13.4866618412        2.8599593534        1.9008733323
 C       -13.7897703922        0.6924276706        2.9043068440
 C       -12.2636834495        0.3707611831        2.9383869192
 O       -11.9572121478       -0.7104063467        3.4495947946
 C       -11.1845266132        1.1281438870        2.1413199253
 C       -10.5898203358        2.1634460126        3.1680589186
 C        -9.6394165097        3.2077243168        2.4788798832
 O       -10.0927883480        4.3376265806        2.1701091396
 C        -8.1777730823        2.8683495308        2.2623186952
 C        -7.8898283660        2.0821031058        0.7967300311
 O        -8.0164411175        0.8638298016        0.8318608623
 C        -7.4736093366        2.8444636641       -0.4976033568
 C        -7.1524648530        1.7350446629       -1.5723558459
 C        -7.6690884531        2.1540977144       -2.9545697368
 O        -8.8081876805        2.4116587548       -3.3020540548
 C        -6.4649061384        2.5584901310       -4.1070666814
 C        -5.0812446651        1.9299271916       -4.0307628755
 O        -4.1117458197        2.5353429386       -3.4997617283
 C        -4.8121824199        0.6414697592       -4.8653257906
 C        -3.8606005041        1.1562102274       -5.9446109609
 C        -3.6148689905        0.0237056983       -6.8629200977
 O        -4.1888942401       -1.0756680156       -6.7135546120
 C        -2.5230488424        0.2326291185       -7.9725554248
 C        -3.5192891253        0.3028893714       -9.3304642181
 O        -3.7437255415        1.3401790906       -9.9519831461
 C        -4.3899610438       -0.9662820527       -9.7831262391
 C        -1.6680521437        1.5982806818       -7.7983816936
 C        -1.6138922126       -1.0906403764       -8.0140206322
 C        -7.1318928516        2.3760648121       -5.5080942996
 C        -6.2162220143        4.1554209095       -3.7509052715
 C        -7.3376833102        4.1951831067        2.5316268599
 C        -7.7036585918        1.8448266178        3.2854748827
 C       -14.6314206517       -0.1421052824        3.8793277226
 C       -14.2072073132        0.1858635189        1.4168435270
 C       -13.2890937473        6.2329829819        6.6160772416
 C       -15.8092047375        6.1714482894        5.9386911300
 C       -11.9179188055        8.5617389071       -0.6912314969
 C       -14.0712927510        9.5664324332        0.2792260721
 H       -14.5907414940        7.0200005612       -2.2785978304
 H       -15.4466213140        8.1091044532       -1.1991303008
 H       -15.7472027267        6.4063831327       -1.0840708874
 H       -13.5815918165        9.5104386813        2.8110294790
 H       -11.8329634158        9.5331195528        3.0517930755
 H       -12.6475450416        8.9378393291        5.2548442672
 H       -12.1702445775        7.4896903876        4.6217863173
 H       -14.9552366884        4.3827529758        2.7331465801
 H       -15.9944731038        4.3071442824        4.2546737121
 H       -15.1786549532        2.4730201512        4.6058031914
 H       -13.5711766879        3.0212780558        4.8049155619
 H       -11.6933762148        1.7217311017        1.3762502698
 H       -10.3495294039        0.5368468774        1.6908247484
 H       -10.1479675651        1.6288885977        4.0262010983
 H       -11.4152373786        2.7653107276        3.6456044277
 H        -6.4903259122        3.3307009536       -0.3873948387
 H        -8.2614502457        3.5195101665       -0.8745891891
 H        -7.6592041538        0.8623766510       -1.2022330038
 H        -6.0949165093        1.6484445487       -1.4943272512
 H        -5.6813266299        0.1416776521       -5.2530171695
 H        -4.3184003526       -0.0231205536       -4.1898614214
 H        -2.9002928002        1.4037874311       -5.4602599709
 H        -4.2373824794        2.0520354567       -6.4366075124
 H        -5.1463741114       -0.5725704129      -10.4892641304
 H        -4.8348339071       -1.7259995599       -9.0993529928
 H        -3.6406599608       -1.5364007917      -10.4041515517
 H        -0.9257026965        1.3295664242       -7.0338090591
 H        -2.3406207778        2.4686517737       -7.5274595359
 H        -1.3114415606        1.7699523839       -8.8258665639
 H        -0.7065091207       -0.7490934294       -8.6084326013
 H        -2.0961288795       -1.9174683182       -8.5569024278
 H        -1.4727049409       -1.3433921135       -6.9728545926
 H        -8.1830331112        2.8598904455       -5.6091491082
 H        -7.3732722648        1.3606349241       -5.8291004238
 H        -6.5744754506        3.0585345761       -6.0463755478
 H        -5.8426046364        4.3420645991       -2.7333818065
 H        -7.1634540508        4.6789610241       -3.8349959903
 H        -5.4412618598        4.5339713361       -4.4817882902
 H        -6.3941229183        3.8019271783        2.8369260115
 H        -7.7766267791        4.8504417330        3.3697774299
 H        -6.9688262639        4.8675211273        1.6966719618
 H        -8.2413646034        0.8968010562        3.3425685545
 H        -7.5685900511        2.2828666219        4.2704329833
 H        -6.6735940740        1.5872534972        3.1431686330
 H       -15.4880926657        0.4652199770        4.1043093011
 H       -14.0943380516       -0.2157063435        4.8600921825
 H       -14.8768046135       -1.1578607067        3.6226066256
 H       -13.9381429310       -0.7919343688        1.1419997065
 H       -13.5169463976        0.5753458073        0.6582760685
 H       -15.1969746734        0.5614293486        1.1086070174
 H       -13.5323031460        5.3567397140        7.2472687023
 H       -13.1943909388        7.1167412859        7.2297249197
 H       -12.2778714809        6.1129532059        6.2447193181
 H       -16.3275597834        6.8499930774        6.6080049583
 H       -15.6772366941        5.1363201789        6.2855051738
 H       -16.7023848748        5.9815065688        5.3038482126
 H       -11.2786784777        7.6478849486       -0.8733486882
 H       -11.1815923292        9.3139959203       -0.4194643569
 H       -12.2452230063        8.9471725451       -1.6906905600
 H       -13.4621149667       10.4338001514        0.2013301731
 H       -14.8083954792        9.5632284356        1.0625694262
 H       -14.5172773349        9.6614835096       -0.7460501573
 Na      -12.1034087279        4.6808297657        1.8916428493
