117

 C       -13.5020194091        7.2603618158       -2.6479071166
 C       -12.9139628786        6.8908017509       -1.2815269457
 O       -11.9227738315        7.4366563200       -0.8777482504
 C       -13.5747187034        5.7570463544       -0.4566598110
 C       -12.7542086679        4.4996272329       -0.8962435006
 O       -12.9007639027        4.1027843213       -2.0145487140
 C       -11.5827222699        3.8933464438        0.0433029667
 C       -10.5706940543        3.2467506768       -0.8402859697
 C        -9.9457209074        4.1652702733       -1.9034433866
 O        -9.8481149997        5.3733536718       -1.7862054122
 C        -9.4722409848        3.4133773090       -3.2093190360
 C        -8.3304577289        2.4512678242       -2.6486640745
 O        -8.0292215927        2.5427770012       -1.4773377611
 C        -7.5554524805        1.5734101664       -3.5342187624
 C        -7.7744162131        0.0985470935       -3.2920766739
 C        -8.9570332748       -0.5886277984       -4.0679597108
 O        -9.3760093775       -0.0244884189       -5.0515295616
 C        -9.4418272217       -1.9686226868       -3.4868582615
 C       -10.0986019243       -1.6379053086       -2.0983111739
 O       -10.2138267964       -0.4876997993       -1.8237817863
 C       -10.5396414863       -2.8067542009       -1.1316724561
 C       -11.6004815321       -2.5315891803       -0.1587978732
 C       -11.0676304569       -1.6793192834        1.0450391451
 O        -9.8399383993       -1.4978592264        1.1860406338
 C       -12.0261415168       -1.1675532303        2.2120622417
 C       -11.8719492212        0.3895735536        2.3751150418
 O       -12.7403143299        1.1343660809        1.9626813069
 C       -10.5372581965        0.9404454341        2.9943953637
 C       -10.8007414834        2.3889350082        3.6566505260
 C        -9.3910414546        3.0931724029        3.6771467840
 O        -8.3955418200        2.4863341410        3.3414110468
 C        -9.2275797824        4.5529296259        4.1616588200
 C        -8.9253259369        5.3971585781        2.7655144927
 O        -9.8389039358        6.0402264500        2.2070814725
 C        -7.5485722081        5.3610686737        2.0095001422
 C        -6.9737334245        6.7486785428        2.2486831980
 C        -7.3609096057        7.7921701614        1.2306810791
 O        -7.5199447575        7.4644230613        0.0469686039
 C        -7.3625198444        9.3556425674        1.5634279548
 C        -8.5575955979        9.9489281126        0.6343047174
 O        -9.3415532465        9.2259103606        0.0449009842
 C        -8.5428482102       11.3688943126        0.4653433122
 C        -7.8721275871        9.6671089151        2.9539955587
 C        -5.9350885890        9.9104459845        1.3882800228
 C       -10.4795084352        5.1566626577        4.7902569070
 C        -8.0030111919        4.7156332239        5.1077511683
 C       -13.5002880276       -1.4354015978        2.0197132441
 C       -11.5052371083       -2.0594387112        3.3624270148
 C       -10.4950391182       -2.6168662521       -4.3909259732
 C        -8.2825558233       -2.9204850703       -3.2737273210
 C       -10.6358896231        2.7346506793       -3.9209087389
 C        -8.7870290893        4.4260142005       -4.1739500275
 C       -13.5634556566        6.1779800465        1.0971004935
 C       -15.0376260055        5.4786265329       -0.8909241864
 H       -12.9403612935        7.9975193776       -3.2093568249
 H       -14.4500123496        7.6676796677       -2.3908920354
 H       -13.6717170133        6.4202591301       -3.3581602530
 H       -12.0158287777        3.1683472535        0.7267112752
 H       -11.1776951585        4.7634686906        0.6371731503
 H       -11.0521542897        2.3856810567       -1.3499466403
 H        -9.8120358979        2.8148614106       -0.2141074469
 H        -6.5366934988        1.9037166957       -3.3986054064
 H        -7.8713571876        1.6382970681       -4.5645103718
 H        -7.7852091608       -0.1793518374       -2.2425342284
 H        -6.8907816722       -0.3516601920       -3.7523047212
 H        -9.5829752311       -3.1404889137       -0.6667855100
 H       -10.7614541394       -3.6674264424       -1.7280567738
 H       -12.0195062813       -3.4841749448        0.1097045305
 H       -12.5077521690       -2.0486789909       -0.6433644074
 H        -9.8436780368        1.0846330910        2.1852668764
 H       -10.1433260219        0.1219689796        3.5696903142
 H       -11.2311015967        2.2652420024        4.6566211034
 H       -11.6518808595        2.8247168804        3.0633208334
 H        -7.8139879277        5.2102649010        0.9614888080
 H        -6.9647039585        4.5103377004        2.4006590831
 H        -5.8375244963        6.6627307271        2.2221660926
 H        -7.0945904530        7.0693155747        3.3048426815
 H        -7.5993701313       11.8426675646        0.6183991825
 H        -9.2470623382       11.7915670137        1.2005602679
 H        -8.9313832118       11.7062582031       -0.5556498161
 H        -7.2526965780        9.4242877524        3.8070439309
 H        -8.8859687419        9.3605347201        3.1278342229
 H        -7.9335848941       10.7634656947        2.9141072370
 H        -5.1288176206        9.1808941230        1.4726300230
 H        -5.6441559825       10.5986529192        2.1490476790
 H        -5.7556963757       10.3312071890        0.4418445468
 H       -11.2213878234        5.6271521193        4.0773980868
 H       -10.1611082315        6.0179794584        5.3489131823
 H       -11.1090901378        4.5331589711        5.4697163264
 H        -7.9573842067        5.7885668846        5.4419346923
 H        -7.0622491921        4.4403251734        4.7213710695
 H        -8.1845357236        4.1472610464        5.9983697294
 H       -13.8719360880       -1.1630442294        1.0183996419
 H       -14.0584203256       -0.9083303032        2.7833335500
 H       -13.7882737357       -2.5317543014        2.0457201731
 H       -10.4591560473       -2.0878728474        3.3163095978
 H       -11.7793524987       -3.0673427171        3.1444161616
 H       -11.7866838503       -1.7628858350        4.3730939659
 H       -10.0408719425       -2.9457816385       -5.3188682125
 H       -11.3575822722       -2.0691470377       -4.6883083507
 H       -10.8903644785       -3.5046150846       -3.7738726041
 H        -7.6575692760       -2.5757778039       -2.4302027114
 H        -7.7461893421       -3.1156926519       -4.2217081888
 H        -8.6764210889       -3.8471718677       -3.0341913317
 H       -11.5799560588        3.2184452982       -3.6635081872
 H       -10.6757530224        1.7277171871       -3.5518700488
 H       -10.5062880786        2.6002620449       -4.9640963860
 H        -9.4912564028        4.6826541970       -5.0069799431
 H        -7.9046030048        4.0176122405       -4.6035795170
 H        -8.5633920978        5.3752915464       -3.6417330521
 H       -12.5399304224        6.2065617139        1.4862696832
 H       -14.0214920295        5.4281708740        1.5918211867
 H       -14.0969398324        7.1519951576        1.0882346670
 H       -15.0697940920        5.3593749449       -1.9540239922
 H       -15.7272832350        6.2371035265       -0.5555720037
 H       -15.2997422764        4.5082187739       -0.4066762916
 Na      -10.0629037550        6.9566710292        0.0197802834
