117

 C       -14.8785428397        7.1361409885       -1.4709470316
 C       -13.9658575018        6.9958735994       -0.1937061163
 O       -13.6873037340        5.9026159716        0.2168657508
 C       -13.1686570645        8.2856114585        0.2793409728
 C       -12.4917154009        7.9192895926        1.7302136295
 O       -11.8281684855        6.9152991119        1.8118017773
 C       -12.8430311439        8.8551075056        2.8881924938
 C       -12.7892530187        8.2492951187        4.2782498186
 C       -14.1921195613        7.8611212337        4.8126111476
 O       -15.1717334490        8.4497299061        4.4279500034
 C       -14.3993078230        6.4789793088        5.6535983212
 C       -13.9656222698        5.4669496756        4.5022066565
 O       -12.7698096602        5.4281376160        4.2503361547
 C       -14.9942256343        4.4970289421        3.9192793621
 C       -14.4638169774        2.9900678815        4.0524358873
 C       -13.9663889363        2.2434122350        2.8106705336
 O       -13.4434669810        2.8095051103        1.8775500998
 C       -13.8373841825        0.7406351040        2.7315142891
 C       -12.2399067129        0.2872882193        2.8630008208
 O       -11.9312720336       -0.4814908484        3.7137938866
 C       -11.1545915405        1.0978737729        2.1424114400
 C       -10.6155998174        2.2667487543        3.0410213623
 C        -9.6365719352        3.2432094257        2.4052431012
 O       -10.0140040053        4.3954984942        2.1980624015
 C        -8.1686683707        2.7987296504        2.2039387925
 C        -7.9011544297        2.1783022984        0.8007983030
 O        -7.8973111583        1.0086244820        0.8295003139
 C        -7.4589641504        2.9046703673       -0.4332402801
 C        -7.2192734809        1.9676771139       -1.6786382709
 C        -7.6226831745        2.3283398038       -3.0961173465
 O        -8.8191552716        2.3542608895       -3.3907013426
 C        -6.5314552116        2.6879622997       -4.1121792526
 C        -5.1272283057        1.9341907373       -3.9574199736
 O        -4.1143143472        2.4217999206       -3.5042026957
 C        -4.8187723208        0.5999607908       -4.7317262094
 C        -3.7847646851        1.1349602415       -5.8198225374
 C        -3.6351495143       -0.0204231371       -6.8027719805
 O        -4.3757072812       -0.9967839584       -6.7122335108
 C        -2.6158600179        0.0648484974       -8.0203251360
 C        -3.4732107532        0.1353438653       -9.2941157284
 O        -3.4139181464        1.1857619634       -9.9069405549
 C        -4.2967657592       -1.0891306813       -9.5445658003
 C        -1.7144101277        1.3284773070       -7.8969276676
 C        -1.7103122487       -1.0967954006       -8.0152938193
 C        -7.1678044320        2.4312864124       -5.4633778726
 C        -6.3294918733        4.1652577738       -3.8487656429
 C        -7.2715505942        4.1113708114        2.2602582854
 C        -7.7514459508        1.6629454434        3.1907182265
 C       -14.4754277943       -0.1052280384        3.7926081276
 C       -14.3091844687        0.3128709948        1.2927001806
 C       -13.3529007100        6.3232790965        6.7156212620
 C       -15.8287272411        6.4106397731        6.0337525902
 C       -12.0200061541        8.1792536520       -0.7340034686
 C       -13.9372522244        9.5638945645        0.3306535053
 H       -14.1608350269        7.3183811182       -2.2796981399
 H       -15.6085899404        7.9958606588       -1.4271227772
 H       -15.2652991771        6.1664671524       -1.6685956029
 H       -13.8199898202        9.3529281084        2.6955910785
 H       -12.0836240319        9.5549529666        2.9835663171
 H       -12.4250345093        8.8878355342        5.0730587558
 H       -12.0923737601        7.3481921836        4.3229963647
 H       -15.0071174345        4.6489159015        2.8562609428
 H       -15.9633956268        4.5293938255        4.3588395369
 H       -15.3035396182        2.4197755264        4.4592194197
 H       -13.6954872997        2.9881671774        4.7958048746
 H       -11.6000655509        1.4514344490        1.2283093281
 H       -10.2559117200        0.6118869408        1.9782300890
 H       -10.1839140913        1.6653251396        3.9250941576
 H       -11.3176767243        2.9135653674        3.4846663502
 H        -6.5293247682        3.6004728949       -0.3662893605
 H        -8.4011724871        3.4372086337       -0.7839331862
 H        -7.7044072562        1.0204127898       -1.4477321811
 H        -6.0869957972        1.8219772429       -1.6024083608
 H        -5.7171129788        0.0319358733       -5.1458931811
 H        -4.3004565592       -0.0443095634       -4.0353426668
 H        -2.9211506409        1.4867174477       -5.2665120239
 H        -4.1691908037        2.0142568767       -6.4164289154
 H        -5.2371648093       -0.9102382132       -9.9474672553
 H        -4.4336540282       -1.6666602409       -8.6495237963
 H        -3.6975075969       -1.8492632756      -10.2195170298
 H        -1.4661946627        1.2714100575       -6.7952554062
 H        -2.1083882378        2.2347954648       -8.2994191277
 H        -0.8846160308        1.0540963210       -8.5036759126
 H        -0.7844219138       -0.7271011214       -8.4992258903
 H        -2.0820127752       -1.8461187332       -8.6632051204
 H        -1.6420125400       -1.4273248455       -6.9509368739
 H        -8.1384166975        2.7683208831       -5.7011427696
 H        -7.2976024907        1.3800084559       -5.4673853692
 H        -6.5280940871        2.9738925839       -6.2163527565
 H        -6.1106476935        4.2876282392       -2.7286928127
 H        -7.2778760844        4.6760847399       -3.9601434798
 H        -5.5571176641        4.5477042186       -4.4732705035
 H        -6.1645721128        3.7060139983        2.1900789866
 H        -7.4209120309        4.5733439213        3.2745161652
 H        -7.2608470906        4.8565293115        1.4882127787
 H        -8.3034781523        0.7823449232        3.1332569718
 H        -7.7066607278        2.0259601727        4.2156114393
 H        -6.7745581802        1.3385972920        3.0936726743
 H       -15.4923625234        0.0939103441        3.9101332807
 H       -13.9825021765        0.0711648241        4.7686432763
 H       -14.3043825781       -1.1592115348        3.6311891253
 H       -14.3645281795       -0.7282855156        1.1105079029
 H       -13.6245182747        0.5121555870        0.4450279659
 H       -15.2261402279        0.8375360837        1.1112877395
 H       -13.5972516944        5.5520568595        7.5221890112
 H       -13.2842544182        7.3031439489        7.1976946027
 H       -12.3601187544        6.1808863109        6.3582430372
 H       -16.2822198163        7.2762794414        6.6944280095
 H       -16.0975497356        5.4393616720        6.3757850130
 H       -16.5723252920        6.5062620631        5.2319850568
 H       -11.2678717760        7.4111756902       -0.4989999566
 H       -11.4405762896        9.1007350961       -0.8588743701
 H       -12.3646180742        7.9631801844       -1.7273031760
 H       -13.1890009614       10.3323274805        0.4571846610
 H       -14.6635744387        9.5019043385        1.1191215116
 H       -14.3247913510        9.8422403034       -0.6104979572
 Na      -12.2320451041        4.7297134530        1.9180473290
