117

 C       -14.6710873650        8.2335296343       -1.9929106942
 C       -13.6855141631        7.4367593191       -1.1861008208
 O       -12.4767674476        7.7313409128       -1.1987430752
 C       -14.0558772537        6.1479603688       -0.3811802650
 C       -13.4532108847        4.8117173290       -1.0052382240
 O       -13.9258941655        4.4347458546       -2.0823827269
 C       -12.4051637961        4.0173113796       -0.1572138714
 C       -11.7099646463        3.0006911135       -1.1017543420
 C       -10.7371750969        3.6923195075       -2.0227562746
 O       -10.3859324498        4.9081195922       -1.9959651890
 C        -9.8072837083        2.7892075009       -2.9594704994
 C        -8.7939624747        2.1638016365       -1.9302351020
 O        -8.8565886773        2.3907328659       -0.7279264687
 C        -7.7532703124        1.1656762144       -2.5527903194
 C        -7.3749849285       -0.1160867930       -1.7729696512
 C        -7.7959471575       -1.3585105279       -2.6341767369
 O        -7.3706956541       -1.4626085593       -3.7590282395
 C        -8.6938673006       -2.3941679950       -1.9716160404
 C        -9.9868600644       -1.8073743766       -1.2944917986
 O       -10.3283510206       -0.6638522870       -1.5411885458
 C       -10.8451370817       -2.7252218452       -0.3669854575
 C       -11.6414831421       -1.9184379391        0.6728142671
 C       -10.7053816626       -1.3689209873        1.8024193931
 O        -9.5042181591       -1.4431063109        1.6500221827
 C       -11.3310984365       -0.6793796704        2.9855008376
 C       -10.9336447483        0.8881686730        2.7000832296
 O       -11.7248574762        1.6584291972        2.2306833547
 C        -9.4869449287        1.1489616052        2.9793327391
 C        -8.8815735580        2.3387906380        2.2566025318
 C        -7.9758274234        3.2837941848        3.1258748354
 O        -7.0144803753        2.8530412389        3.6933253088
 C        -8.5833051388        4.8012896111        3.2547237604
 C        -8.7481801238        5.5179031131        1.9261975983
 O        -9.8144917475        6.0410964897        1.6379497756
 C        -7.4657582384        5.7466019247        1.0810892317
 C        -7.2898625746        7.2348509200        0.8764089704
 C        -7.9827694371        7.7372411958       -0.3541576010
 O        -8.3605265968        7.0118860057       -1.2686289684
 C        -8.1279806574        9.2863415987       -0.5157106551
 C        -9.3511318519        9.7123165896        0.2870622336
 O       -10.3052878563        9.0367006664        0.6532985271
 C        -9.4122468757       11.2317323325        0.6775856845
 C        -6.7838389006        9.8977386759       -0.1944475765
 C        -8.5798264916        9.6302668232       -2.0044347805
 C        -9.9246599077        4.7309493648        4.0682892257
 C        -7.4734392839        5.5592688386        4.0535726865
 C       -12.8388829923       -0.7856367959        3.0406126411
 C       -10.7424023012       -1.2153138841        4.2992470093
 C        -9.1501406153       -3.5493476576       -2.9131820326
 C        -7.7396455235       -3.0420008507       -0.8593484778
 C       -10.5780340360        1.6258739701       -3.6072246221
 C        -9.1272389012        3.6215113145       -4.0363501189
 C       -13.6514665008        6.3851323764        1.0328392425
 C       -15.6327291096        5.9625176725       -0.5390488833
 H       -14.1898300792        9.0013269875       -2.4270154204
 H       -15.4288946103        8.5794485482       -1.3343405611
 H       -15.0807191408        7.7161166470       -2.8384922788
 H       -12.8614261162        3.3745775339        0.5969561957
 H       -11.7214823911        4.6822233531        0.3518001341
 H       -12.3209518925        2.3548063039       -1.7407810598
 H       -11.1548202835        2.2382494339       -0.5049743253
 H        -6.7547686117        1.7067915124       -2.7054962854
 H        -8.1850803229        0.8478549794       -3.5394857497
 H        -7.6379711968       -0.0921083389       -0.7366682342
 H        -6.2728942491       -0.1714342321       -1.7935871872
 H       -10.3240226055       -3.5755800747        0.0589776513
 H       -11.6118685819       -3.2557100105       -0.8992950394
 H       -12.4240392361       -2.4450610036        1.1302805939
 H       -12.1603811661       -1.1195157671        0.0372762090
 H        -8.8622609721        0.3004291282        2.8081922140
 H        -9.4177887573        1.2129060589        4.0469318485
 H        -9.7491965402        2.9332984708        1.8546402283
 H        -8.2455156405        2.0054709640        1.3750178969
 H        -7.6875315089        5.3240906789        0.1238969709
 H        -6.6079775621        5.4048148358        1.5789229926
 H        -6.2159870625        7.4497116361        0.7116483530
 H        -7.5746827299        7.9223063523        1.6636600436
 H        -8.8646658207       11.9496230327        0.0843803638
 H        -8.9289925037       11.3439233458        1.6304408311
 H       -10.4190554954       11.5595304783        0.7888670211
 H        -6.0334199175        9.4308538158       -0.8454867230
 H        -6.4694151856        9.7750196930        0.8110464820
 H        -6.7463593584       10.9441909901       -0.5148805710
 H        -7.7549479137        9.2127737697       -2.6016171220
 H        -8.6036829126       10.7472652869       -2.1277524927
 H        -9.5294137406        9.1585891669       -2.2481639871
 H       -10.6187379777        4.0051575740        3.6477603871
 H       -10.2437220840        5.6993714038        4.1020778568
 H        -9.6101934444        4.4252092831        5.0270878852
 H        -7.9239130773        6.5367039950        4.4975221672
 H        -6.7034118547        5.8159766853        3.3588056005
 H        -7.1222206729        4.9121739430        4.8705606101
 H       -13.3140880178       -0.1823702016        2.2133027595
 H       -13.0851442390       -0.3428113268        4.0061544768
 H       -13.1620204880       -1.8371766148        3.0044709479
 H        -9.6697132129       -1.1393830383        4.2709058895
 H       -10.9217263622       -2.2788993918        4.4370371354
 H       -11.1601635796       -0.5931411600        5.0952658799
 H        -8.2821333996       -3.9706501471       -3.3134524799
 H        -9.8032705633       -3.3002537563       -3.7153984482
 H        -9.6276777589       -4.2836351015       -2.2130175364
 H        -7.5182702447       -2.3049111618       -0.0366655987
 H        -6.6722115166       -3.1254101419       -1.2216426311
 H        -8.0469419301       -4.0138111321       -0.6136317539
 H       -11.3667494337        2.1065030018       -4.1105977719
 H       -10.9281554304        0.8034068268       -2.9794036483
 H        -9.9151305994        1.2248293634       -4.3157837558
 H        -8.0134978607        3.5397405819       -4.0568848980
 H        -9.4161236295        4.6546278173       -3.8957582362
 H        -9.6057945219        3.3572057975       -5.0103099125
 H       -12.5421397533        6.6200891113        1.2045023537
 H       -13.8109000172        5.5886642814        1.6958910674
 H       -14.2282577862        7.1704159134        1.5298577912
 H       -15.9309585378        5.8233612436       -1.5580050101
 H       -16.1808990999        6.8419406483       -0.2181402761
 H       -15.9755912552        5.0616003754       -0.0683235687
 Na      -10.6040148856        6.9036509988       -0.5276120498
