117

 C       -14.6810787765        8.2037565582       -1.9271929902
 C       -13.6288644803        7.4349968076       -1.2269813084
 O       -12.4731784309        7.8312219545       -1.2277861806
 C       -14.0059558225        6.1495917116       -0.3677736632
 C       -13.3881134915        4.8525361322       -1.0445300129
 O       -13.8413092788        4.2954500689       -2.0099990450
 C       -12.4422722269        4.0555522972       -0.1820552996
 C       -11.6977962374        3.0994722265       -1.1116272858
 C       -10.6295377789        3.7766519853       -1.9135057930
 O       -10.4898822690        4.9638787919       -1.9240711479
 C        -9.8171047432        2.8079904403       -2.9088489190
 C        -8.8077593781        2.0846448302       -1.9204740864
 O        -8.8176359020        2.3014015255       -0.7164380880
 C        -7.6553612575        1.2278930046       -2.5506101983
 C        -7.5003386592       -0.0501425940       -1.7534330588
 C        -7.7670688025       -1.3345339232       -2.6552746396
 O        -7.4154704384       -1.3758813292       -3.7845312583
 C        -8.5994703530       -2.5325881692       -1.8857787411
 C        -9.9170996352       -1.8831041452       -1.2102538357
 O       -10.1586852770       -0.6847772317       -1.3626645486
 C       -10.8926248417       -2.7084032253       -0.4644909157
 C       -11.6709642900       -1.9022586353        0.6569730989
 C       -10.7000031541       -1.4329009798        1.7424148868
 O        -9.4938089120       -1.4562801550        1.6177216225
 C       -11.3836297465       -0.6144221891        3.0994209453
 C       -10.9222406381        0.8104724762        2.7911655583
 O       -11.7032162374        1.6054603026        2.2421850538
 C        -9.4545766598        1.1717476981        3.0481290577
 C        -9.0434306863        2.3980243934        2.2605122819
 C        -8.0694720404        3.3782225333        3.0335602003
 O        -6.9998227695        3.0507414130        3.5013712198
 C        -8.5291646351        4.8839662304        3.2296990997
 C        -8.8050032811        5.5435772363        1.8509643456
 O        -9.9425327504        5.9382580964        1.5024201699
 C        -7.5800731463        5.7545888499        0.9454525335
 C        -7.2518492243        7.2335319330        0.7657479491
 C        -7.9511861455        7.7579285346       -0.4859312807
 O        -8.3482449714        6.9852825272       -1.3636724283
 C        -8.1252691252        9.3048567657       -0.5948883674
 C        -9.2815760405        9.7429188601        0.4146346148
 O       -10.1990365214        8.9367630925        0.5782091902
 C        -9.3675374079       11.2579430067        0.8075937532
 C        -6.7649004594        9.9879603833       -0.4368130926
 C        -8.7850061072        9.5484793401       -2.0137010656
 C        -9.8032383151        4.6853277066        4.1044598331
 C        -7.5070786697        5.7291034195        4.0568359963
 C       -12.9844273515       -0.7139463258        3.1123992868
 C       -10.8066434300       -1.1656117647        4.4241469976
 C        -8.9813094514       -3.5728765759       -2.9625262299
 C        -7.7664694649       -3.0916345101       -0.7690097705
 C       -10.6524747100        1.6094777929       -3.4667351080
 C        -9.1265855440        3.6089331563       -3.9864788847
 C       -13.6350373157        6.3091726589        1.1023378589
 C       -15.5297732156        5.8349573380       -0.4917084787
 H       -14.2545033161        9.1263428127       -2.2623301874
 H       -15.4590135139        8.3859542744       -1.1971679666
 H       -15.0620939849        7.7786346031       -2.8014351287
 H       -12.8830275152        3.3377293834        0.5671467928
 H       -11.7843749440        4.7275602759        0.3070694302
 H       -12.2872802415        2.6013996431       -1.8501401548
 H       -11.3372389376        2.2532568712       -0.5210877459
 H        -6.7417809141        1.7792805873       -2.4828320636
 H        -7.9454222695        1.0159377212       -3.6227204819
 H        -8.1436632414        0.0734370727       -0.8741879302
 H        -6.4848946015       -0.1164722859       -1.3225242877
 H       -10.5920985914       -3.6645238386       -0.0553907558
 H       -11.6785923564       -3.0813046757       -1.1901182180
 H       -12.4812868113       -2.4726631042        1.1514439576
 H       -12.1637406238       -1.0067140653        0.3009360308
 H        -8.7534742511        0.4242630381        2.7697829206
 H        -9.3022197863        1.1725606750        4.1435616696
 H        -9.9772130029        3.0013628783        1.9657294001
 H        -8.5800805473        2.0673024867        1.3500267115
 H        -7.8241911041        5.3622165588       -0.0027644498
 H        -6.6949635488        5.3582924783        1.4942862583
 H        -6.1656518050        7.3400757715        0.6837223595
 H        -7.5567403279        7.9759034914        1.5461550910
 H        -8.9638999364       11.9203894532        0.0536132114
 H        -8.7513176851       11.5257235527        1.6396718404
 H       -10.3485778127       11.5399341381        0.9430904752
 H        -6.0549245336        9.6160144187       -1.1743231894
 H        -6.3359706166        9.8616598529        0.5397005081
 H        -6.8267397187       11.0545043223       -0.6828272999
 H        -8.3161417986        8.7897123284       -2.7121159748
 H        -8.5500271696       10.5571333576       -2.3378574276
 H        -9.8937318443        9.3748216284       -1.9326291854
 H       -10.4270056738        3.9025405603        3.6859543904
 H       -10.2582920747        5.6199805764        4.2414172723
 H        -9.3833795283        4.2669444855        5.0070307367
 H        -8.0325563657        6.6261046048        4.3045969583
 H        -6.6341838991        6.0020109592        3.4070365822
 H        -7.2536644116        5.2042065081        4.9749510970
 H       -13.4696381495       -0.2699285597        2.2585550948
 H       -13.3387892568       -0.2787962456        4.0264162526
 H       -13.1689930092       -1.8331884678        3.1252652168
 H        -9.7292580103       -1.1890610927        4.4251434263
 H       -11.1074233148       -2.1986767627        4.6301106433
 H       -11.1697293120       -0.3881223330        5.1734419760
 H        -8.2533679927       -3.6374885160       -3.7713020017
 H        -9.8587748835       -3.2135789602       -3.4217557329
 H        -9.2362249516       -4.5089347176       -2.5019219729
 H        -7.5837770312       -2.3549715676       -0.0069234765
 H        -6.7155781839       -3.2548557752       -1.0933570283
 H        -8.1150764722       -4.0670691989       -0.4539883751
 H       -11.6382610962        2.0053598787       -3.8007853304
 H       -10.7640160008        0.8449577034       -2.7368972896
 H       -10.0902260001        1.1779139611       -4.2950551530
 H        -8.1620067405        3.0728069217       -4.2866551458
 H        -8.9215866088        4.6279118358       -3.7124246845
 H        -9.8406966934        3.6503031671       -4.8318385450
 H       -12.6313979756        6.6385216898        1.1625939338
 H       -13.6431538193        5.4528434853        1.7841027065
 H       -14.2068765077        7.0708816738        1.6196775223
 H       -15.8756816174        5.7600787926       -1.5157524904
 H       -16.1259996931        6.6024562866       -0.0416269614
 H       -15.7493267869        4.8583261025        0.0118074580
 Na      -10.6301388551        6.7431730495       -0.6040768449
