117

 C       -14.7981193416        7.0468059790       -1.5242733762
 C       -13.9657227344        6.7997970635       -0.3350308294
 O       -14.1498407169        5.7979567933        0.3639311975
 C       -13.0237809769        8.0400005466        0.1756114847
 C       -12.5159198396        7.9074419706        1.6636055348
 O       -11.6709097524        7.0924854472        1.9786371352
 C       -12.9427882040        8.8991110110        2.8070625273
 C       -12.7372802513        8.2509379362        4.2284823905
 C       -14.0456690833        7.9060193944        4.8239458259
 O       -14.9279775395        8.6258768872        4.5013729103
 C       -14.3739004187        6.6086872833        5.7489475216
 C       -13.9930577629        5.2926364487        4.7966923338
 O       -12.8284073641        5.1972849361        4.4137035736
 C       -14.9175256550        4.3527755278        4.0107537102
 C       -14.6748396211        2.8632966093        3.9917951112
 C       -14.0161289882        2.3142241199        2.7137934136
 O       -13.5641136882        2.9434381320        1.7738448031
 C       -13.8009227763        0.8014890149        2.6469279766
 C       -12.2036872375        0.4945579328        2.9131452700
 O       -11.8714080849       -0.0297419406        3.9785620450
 C       -11.1015521344        1.1315061923        2.0249986116
 C       -10.4889632854        2.3064095345        2.9048817971
 C        -9.5778761117        3.2062175441        2.1851079474
 O        -9.8887601091        4.3663276829        1.9319181345
 C        -8.0527978856        2.7340070248        2.1410329970
 C        -7.8130893788        2.0874691455        0.6351081566
 O        -7.9610851129        0.8615008689        0.5439786153
 C        -7.8736370942        2.9416613792       -0.6014719335
 C        -7.0441934489        2.1530936363       -1.7228177178
 C        -7.6281972376        2.4597776329       -3.1295844944
 O        -8.8101169082        2.2710022410       -3.3745357117
 C        -6.5665460665        2.8348485874       -4.1463260322
 C        -5.2511778822        2.2262475995       -3.8859849327
 O        -4.6015255044        2.6140281181       -2.9185501984
 C        -4.8662278175        0.9068044302       -4.5761046299
 C        -3.7940615052        0.8947770134       -5.6271223144
 C        -3.6713803920       -0.2742559562       -6.6988311574
 O        -4.4792418928       -1.1741417961       -6.7718611926
 C        -2.6035187493       -0.1981198601       -7.9300646584
 C        -3.3026412767       -0.2419012277       -9.3036887372
 O        -3.1394461835        0.6936008909      -10.0727539057
 C        -4.3457581758       -1.3569192739       -9.7829812791
 C        -1.6020310462        1.0995371815       -7.7040171045
 C        -1.7963701289       -1.5082426681       -7.7500186158
 C        -7.0205636677        2.5845224703       -5.7047261462
 C        -6.2979639419        4.4883463582       -4.1306384442
 C        -7.0567185255        3.9576753370        2.2149997233
 C        -7.6284922128        1.8101925014        3.3102924919
 C       -14.6180612523        0.0047615254        3.6330714497
 C       -14.2339427859        0.3219243447        1.2997788263
 C       -13.4939673633        6.7125335849        7.0476501744
 C       -15.7993683148        6.7046491246        6.2402273408
 C       -11.7235001133        7.9616530581       -0.7127903895
 C       -13.7340633420        9.4104978778       -0.1209566677
 H       -14.5911197377        8.0504603813       -1.9778942912
 H       -15.7317406140        7.1075620089       -1.0127573669
 H       -14.7200294770        6.2258798478       -2.2852531067
 H       -14.0020442237        9.1170949346        2.7637987943
 H       -12.3170187201        9.8687963747        2.9090247571
 H       -12.2429903217        8.8965872738        5.0175963320
 H       -12.1805473529        7.3354255733        4.2606991124
 H       -14.8599788090        4.7751453546        2.9943442585
 H       -15.9582352756        4.4409153580        4.3697631969
 H       -15.6567140409        2.3629624388        4.0795315520
 H       -14.0892720483        2.7250906478        4.9506573225
 H       -11.5384881037        1.5373891923        1.1059532334
 H       -10.2747287901        0.3593052400        1.8626976207
 H       -10.1784598443        1.9071475022        3.7942084886
 H       -11.3204720102        3.0597031972        3.1004267241
 H        -7.5126150969        3.8730314738       -0.3424544244
 H        -8.8495641427        2.9172051406       -1.0230922644
 H        -7.1045897445        1.0217182530       -1.4894432570
 H        -6.0339900047        2.4487158976       -1.5370402522
 H        -5.8363087451        0.5638683217       -4.8579601749
 H        -4.5339836827        0.1836079864       -3.7742674401
 H        -2.8943369649        1.0033143553       -4.9668366869
 H        -3.7450392039        1.7570872289       -6.2852887331
 H        -5.2895609137       -0.7874011539       -9.9200207743
 H        -4.6234261743       -2.1509347957       -9.0962239325
 H        -4.0844876479       -1.8441085850      -10.6729811571
 H        -1.5192038685        1.2908883330       -6.6964282402
 H        -1.9191228995        1.8726888371       -8.3806348141
 H        -0.6576770998        0.7819581513       -8.0991682494
 H        -1.2791506584       -1.6763593264       -8.6781868647
 H        -2.5676136475       -2.2858877446       -7.6355997221
 H        -1.2132870400       -1.3255997011       -6.9022888657
 H        -7.7201380172        3.4363421752       -6.0055727802
 H        -7.6633324701        1.7001753300       -5.6377254855
 H        -6.3361224176        2.6902896274       -6.4398208713
 H        -6.0348244434        4.6299772949       -3.1487494765
 H        -7.1672121126        5.1434571757       -4.2187933543
 H        -5.5129032677        4.7151820404       -4.9155905455
 H        -6.2668781155        3.9555261825        1.6036023658
 H        -6.7270552386        3.9357621237        3.2348733209
 H        -7.5103129720        4.9364872404        1.9655387363
 H        -7.8685109108        0.7028674967        3.2815744158
 H        -7.8820044461        2.1241080425        4.3168165280
 H        -6.5135236793        1.7134643769        3.3172130212
 H       -15.5672757355       -0.1711800319        3.0823729782
 H       -14.8087967384        0.3458799499        4.6348269003
 H       -14.2206229884       -0.9939940220        3.7890239117
 H       -14.1251199091       -0.7883681672        1.1161504866
 H       -13.6666191714        0.6986310212        0.4503907909
 H       -15.3227447206        0.5273530412        1.1443180627
 H       -13.8139071007        5.9137130378        7.6609811542
 H       -13.7703122552        7.5984633545        7.6197442559
 H       -12.3800591932        6.7425168681        7.0011729473
 H       -15.6920854168        7.5113309635        6.8724238337
 H       -16.3251811074        5.9367530565        6.8308310951
 H       -16.5837411538        7.1020648002        5.6554899141
 H       -10.8660017412        7.4981875159       -0.2439255751
 H       -11.3705536352        8.9772159821       -0.8929696524
 H       -11.8143726252        7.3419484464       -1.6362126349
 H       -13.2316227645       10.2164391534        0.3973614082
 H       -14.7830507271        9.3167579653        0.1255594230
 H       -13.4860071308        9.6087471098       -1.1957058615
 Na      -12.5059401945        5.0793829693        2.0279210813
