117

 C       -14.7570663802        8.1977094443       -1.8443759683
 C       -13.6083214697        7.4453413679       -1.2067771652
 O       -12.4869559082        7.8618019480       -1.2718504329
 C       -14.0401041842        6.1191923850       -0.4045141315
 C       -13.3982236849        4.7899478105       -0.9685543760
 O       -13.8026374099        4.4023059629       -2.0265587587
 C       -12.3510134784        4.0005661469       -0.0951155823
 C       -11.6531109231        3.0027351016       -0.9893323924
 C       -10.6587841251        3.7253632663       -1.9873993754
 O       -10.4690842459        4.9107531845       -1.9819723344
 C        -9.7916024933        2.8115594208       -2.8516244430
 C        -8.6532560057        2.1710926266       -1.9479313462
 O        -8.7538061640        2.1971800374       -0.7528084617
 C        -7.5650412081        1.2848562211       -2.5213633288
 C        -7.4576551010       -0.0623603796       -1.7308806744
 C        -7.8871492215       -1.2507893841       -2.5148461373
 O        -7.5219628451       -1.3647817511       -3.7060958146
 C        -8.5804879159       -2.5038987962       -1.8253468214
 C        -9.9003488522       -1.8929019128       -1.1993433069
 O       -10.0242868381       -0.6823678800       -1.2396491019
 C       -10.9237409765       -2.7772827814       -0.5035699030
 C       -11.6696698949       -1.9491488436        0.6347095652
 C       -10.7993009753       -1.4438834542        1.7692848083
 O        -9.5924212033       -1.4949422973        1.7317897571
 C       -11.3667387124       -0.7117139197        3.0569247007
 C       -10.9165563185        0.7848711735        2.8007100755
 O       -11.6680710505        1.5946232853        2.2740135629
 C        -9.4385108594        1.2714066248        3.1655228515
 C        -9.0500769938        2.5533167962        2.2822070155
 C        -8.0798752883        3.4757811834        2.9522733003
 O        -6.9694930364        3.1209318493        3.2662202746
 C        -8.5799214957        4.9677491622        3.2858469945
 C        -8.8922626874        5.5927608318        1.8589474477
 O       -10.0395159121        5.7276025166        1.4228469763
 C        -7.6496450515        5.6652592851        0.8544784023
 C        -7.1603166065        7.1548802373        0.7001526468
 C        -7.9449796693        7.8046850120       -0.6000715680
 O        -8.3178151407        7.0156388208       -1.4269840751
 C        -8.1667556711        9.3231644098       -0.8143558506
 C        -9.2521844862        9.7875307888        0.3095277163
 O       -10.0763036473        8.9393319404        0.6416438153
 C        -9.2780168215       11.0791537429        0.9133014784
 C        -6.8596090267       10.1341587793       -0.6838170194
 C        -8.9171939864        9.5772313229       -2.1247589607
 C        -9.8708137510        4.7978959442        4.1855052611
 C        -7.5588430102        5.8101761093        3.9901733003
 C       -12.9268733053       -0.7045183659        3.1091999098
 C       -10.8402313801       -1.1611786666        4.4115707633
 C        -8.8538466403       -3.5482990805       -2.9763917237
 C        -7.7227841166       -3.1464654709       -0.6935403914
 C       -10.7675353317        1.6988769547       -3.3500178271
 C        -9.1001968727        3.6203867026       -3.9572297554
 C       -13.6422914471        6.3122292018        1.0597956947
 C       -15.5756682496        5.7935634229       -0.3933026436
 H       -14.4017506663        9.1893475222       -2.3561998850
 H       -15.6804559461        8.3156017411       -1.2886736292
 H       -14.9566091844        7.5888619246       -2.7351324842
 H       -12.8439053297        3.3616940517        0.6644542165
 H       -11.6789827374        4.7446630972        0.3923473526
 H       -12.3921538902        2.4174369152       -1.5420715677
 H       -11.1469634855        2.2280379148       -0.4513028143
 H        -6.6389233913        1.7712319620       -2.3790890872
 H        -7.7696096831        1.2017964362       -3.5634091959
 H        -8.0876308722        0.0845737069       -0.8148824596
 H        -6.4307626534       -0.2231628323       -1.3811784012
 H       -10.5958496826       -3.6947976521        0.0215703714
 H       -11.7043018114       -3.2291518258       -1.1706944714
 H       -12.5415093549       -2.5182546317        1.0769503330
 H       -12.0994546739       -1.0420893004        0.3192863474
 H        -8.6115168755        0.5405855356        2.9681202983
 H        -9.3726955097        1.3683493168        4.2775684089
 H        -9.9250219795        3.1566198859        2.0480039353
 H        -8.6716943160        2.2166974465        1.3365208491
 H        -8.0713428495        5.3355167271       -0.1224644886
 H        -6.8100937186        5.1009122569        1.3054036410
 H        -6.0720749172        7.1840154952        0.5717150096
 H        -7.3792335624        7.8116688243        1.5659322234
 H        -9.1246113742       11.8777262252        0.2253083092
 H        -8.4631678139       11.2471039201        1.6075704844
 H       -10.3131643453       11.2529910704        1.3015777092
 H        -6.1141858523        9.9214360320       -1.4293146669
 H        -6.4093580445        9.9460859680        0.3274434062
 H        -7.0246278853       11.1944579963       -0.7622985531
 H        -8.7127143154        8.8513880989       -2.9113528727
 H        -8.6154716987       10.5804331326       -2.4104208663
 H        -9.9952618836        9.5854649244       -1.8617187018
 H       -10.5616280767        4.2309773947        3.6139716343
 H       -10.2661972425        5.8637737839        4.4244560512
 H        -9.5830148320        4.1649195803        5.0326277690
 H        -7.9498743696        6.7617988915        4.1350234798
 H        -6.6697919607        5.8757033068        3.3580646995
 H        -7.3593061721        5.3406359673        4.9409973347
 H       -13.3314351560       -0.2920645572        2.2201918817
 H       -13.1933862032       -0.0736210031        3.9637159982
 H       -13.2856143462       -1.7041311113        3.2466972298
 H        -9.7345755037       -1.3519850947        4.4506507644
 H       -11.3081551433       -2.1327799045        4.6769979533
 H       -11.1007330593       -0.3274729416        5.0572176466
 H        -8.1807632519       -3.3725533570       -3.8518798724
 H        -9.8660101474       -3.3675842561       -3.3901829552
 H        -8.8882792710       -4.5156124131       -2.5982130549
 H        -7.4612950534       -2.4796167020        0.0722848037
 H        -6.8089656854       -3.5662522280       -0.9996838074
 H        -8.3263550114       -4.0397435278       -0.3440091691
 H       -11.7192492624        2.1959193745       -3.6492255147
 H       -10.9238081568        0.9696038763       -2.5512046023
 H       -10.2779363631        1.1472968317       -4.1953361962
 H        -8.6513204632        2.8872449499       -4.5876668612
 H        -8.2915110282        4.3107948454       -3.5986593157
 H        -9.8227362730        4.2033790328       -4.4984418285
 H       -12.6467208764        6.6129620143        1.1432383792
 H       -13.6767772113        5.3968590074        1.7170723547
 H       -14.1910807586        7.0898814290        1.5662858425
 H       -16.0679412781        5.6777914827       -1.3910011960
 H       -16.1411015369        6.5807684671        0.1477494265
 H       -15.7213423910        4.8717575790        0.2176849683
 Na      -10.5914028135        6.6493495060       -0.5993571832
