117

 C       -14.8403512291        8.1823767509       -1.8643161807
 C       -13.7305143677        7.3103097640       -1.1727516294
 O       -12.5654450281        7.7109473255       -1.2412583050
 C       -14.0745872195        6.1407035145       -0.2826693762
 C       -13.3848686911        4.8171171942       -0.9293551521
 O       -13.6766285005        4.4638623870       -2.0675519368
 C       -12.4114182233        3.9946485549       -0.1195516409
 C       -11.5478605115        2.9965417140       -0.8683453504
 C       -10.5759132976        3.6406717802       -1.8911348932
 O       -10.5016199184        4.9003810579       -2.0531457377
 C        -9.7462362982        2.6894186824       -2.8138704046
 C        -8.6567633076        2.0293380312       -1.9209937628
 O        -8.7152914539        2.2590474010       -0.7198262746
 C        -7.4831124147        1.2614327256       -2.5382912021
 C        -7.2090788562       -0.0292812529       -1.6633399002
 C        -7.7719731071       -1.2595193777       -2.4372707364
 O        -7.6645939491       -1.2868670365       -3.6483101981
 C        -8.6269200482       -2.4694455509       -1.7891618038
 C        -9.8778694834       -1.8763420986       -1.1004306371
 O       -10.1076164023       -0.6741295059       -1.1660370547
 C       -10.8716444629       -2.7911609414       -0.3848447767
 C       -11.7062106691       -2.0268365750        0.6355591227
 C       -10.7629823232       -1.4589397101        1.8486476716
 O        -9.5749606479       -1.6589116190        1.7856094072
 C       -11.3478980470       -0.6316104911        3.0425394190
 C       -10.8954246397        0.8541433704        2.7433390606
 O       -11.6831952514        1.6257955406        2.2859240337
 C        -9.5422224157        1.3340428913        3.1871617412
 C        -9.1088687190        2.5541810299        2.3315845636
 C        -8.0963219402        3.4767318019        2.9883318198
 O        -6.9217835980        3.2745123739        3.0617072415
 C        -8.6329206138        4.9822784821        3.2646533105
 C        -8.9410257364        5.4461373676        1.8174365867
 O       -10.0839779741        5.5939209309        1.4743265725
 C        -7.7408025039        5.7213029919        0.8918766993
 C        -7.2594961651        7.1607197351        0.5365059330
 C        -7.8934701424        7.7745047886       -0.7230814302
 O        -8.3230655731        7.0183636742       -1.5569343667
 C        -8.2548885996        9.3554119313       -0.8440258554
 C        -9.2482594961        9.6812577180        0.3365216006
 O       -10.0049820670        8.7845017181        0.6354805752
 C        -9.1104750194       11.0268036942        1.0146365358
 C        -6.9876282150       10.2530750055       -0.8636983991
 C        -8.9694916538        9.6101513039       -2.2780236989
 C        -9.9600553010        5.0289788569        4.1533213128
 C        -7.5255272871        5.8550686540        3.9362872502
 C       -12.9204478236       -0.6715673713        3.0440102730
 C       -10.8014662480       -1.2212325835        4.3282755814
 C        -8.8733947236       -3.5573502907       -2.8707675699
 C        -7.7166957097       -3.1245059396       -0.7127437326
 C       -10.7278979611        1.6649537054       -3.4453141004
 C        -9.1184413040        3.6155623750       -4.0025173801
 C       -13.5918244592        6.4213341707        1.1556325312
 C       -15.5834272864        5.8640830799       -0.3225484145
 H       -14.4490820149        9.1110258187       -2.2697641862
 H       -15.7218553825        8.3946323676       -1.1775202027
 H       -15.2590391638        7.6492057569       -2.8182155878
 H       -13.0953136537        3.4435438248        0.5127898631
 H       -11.7822621875        4.6873676743        0.5049779501
 H       -12.1484797070        2.2200414952       -1.4021654893
 H       -10.9403146719        2.3671889731       -0.2179668282
 H        -6.6107684904        1.9508310551       -2.4879976921
 H        -7.6619530562        1.0793832902       -3.5556426532
 H        -7.6389551095        0.1552831649       -0.6735103521
 H        -6.1234373373       -0.1498708898       -1.5342205356
 H       -10.5974145121       -3.7041662701        0.1747410191
 H       -11.5868638616       -3.1824854684       -1.0913958009
 H       -12.5491468758       -2.6117678615        0.9591497572
 H       -12.1351012953       -1.0656650149        0.2320208427
 H        -8.7175995578        0.5445126633        3.2725613798
 H        -9.6962780257        1.6197524011        4.2439250376
 H        -9.9670622194        3.1147020251        2.1031233311
 H        -8.7062416551        2.2495400629        1.3330298758
 H        -8.1118939451        5.2650582379       -0.0955529601
 H        -6.8720864211        5.2816946223        1.3343163450
 H        -6.2055545592        7.0023157482        0.2197694332
 H        -7.2244086188        7.9010527962        1.3142234336
 H        -9.1817583723       11.9243867432        0.3576361270
 H        -8.1050634663       11.1814183129        1.4520826892
 H        -9.9924684837       11.1723337022        1.6966705769
 H        -6.4101716316       10.0058537392       -1.7589125664
 H        -6.3177052546       10.1076937326        0.0028922311
 H        -7.1725666041       11.3245553637       -0.9172769704
 H        -8.5235343419        8.9563742192       -2.9772820215
 H        -8.7741337752       10.6558201014       -2.5647870913
 H        -9.9948678650        9.4063551790       -2.1725402337
 H       -10.8302503180        4.7035473109        3.5242834205
 H       -10.0581322494        6.0841869372        4.4701960871
 H        -9.8107798164        4.2767975496        4.9503020422
 H        -7.7499264114        6.9383111623        4.0310216971
 H        -6.6540171670        5.7236864515        3.4133450971
 H        -7.4248137013        5.3624222876        4.8706784774
 H       -13.3147399031       -0.3172589824        2.0935433023
 H       -13.2139783747        0.0129341293        3.8289113403
 H       -13.2416157420       -1.6337019844        3.2426364538
 H        -9.7516093393       -1.5238689519        4.1152510255
 H       -11.2989758184       -2.1871237683        4.4194176419
 H       -10.8409955375       -0.5705108643        5.1620844839
 H        -8.1129946097       -3.3882108163       -3.6173203552
 H        -9.8411915811       -3.5731546451       -3.4390979542
 H        -8.8353013485       -4.5462601854       -2.3448903065
 H        -7.3774177718       -2.3672734971        0.0246803072
 H        -6.8513490652       -3.6290481144       -1.0824536624
 H        -8.2628570618       -3.8960775778       -0.1929701889
 H       -11.5564683183        2.2009853900       -3.8980075012
 H       -11.0672398201        0.8981476046       -2.6762792015
 H       -10.1300267067        1.1131304318       -4.1862646125
 H        -9.0847599820        3.0879050949       -4.9137515302
 H        -8.0919889335        3.8920367980       -3.7524460849
 H        -9.6764189208        4.5258826579       -4.1286574041
 H       -12.4837086806        6.6577747419        1.3566847770
 H       -13.7816868998        5.5768386694        1.7818993219
 H       -14.1103109591        7.2970582898        1.5720587261
 H       -15.8433202889        5.7320934934       -1.4002670299
 H       -16.2555496692        6.7016557039        0.0694111599
 H       -15.8715288572        5.0040000302        0.2876848968
 Na      -10.5530124427        6.7046089519       -0.5689036381
