117

 C       -15.6188975951        7.5025367976       -1.2450815091
 C       -14.2737993960        6.9234461968       -1.0126359233
 O       -13.3037170505        7.4730631306       -1.5125060172
 C       -14.1019596593        5.6547514657       -0.0980492223
 C       -13.2382370259        4.6654338849       -0.9479931875
 O       -13.0240874339        4.8971743548       -2.1086278259
 C       -12.5798123502        3.4231151728       -0.3344620150
 C       -11.7425620899        2.6258925861       -1.2729422959
 C       -10.5027841273        3.3328670517       -1.7656951772
 O       -10.1895437227        4.3985453670       -1.3159174786
 C        -9.5424372121        2.7019188903       -2.8452535154
 C        -8.2311366002        2.4211632383       -2.0924816260
 O        -7.9297466027        2.9525371747       -1.0419902367
 C        -7.3138687432        1.3408485042       -2.7469385549
 C        -7.2733677876        0.0911370456       -1.8343591497
 C        -8.2631368986       -1.0761709628       -2.2050986226
 O        -8.5988418679       -1.1694443279       -3.3725638775
 C        -8.5717111593       -2.2257699566       -1.1624604431
 C        -9.7402634099       -1.6787718690       -0.2323061111
 O        -9.8878348127       -0.4713195864       -0.0677895292
 C       -10.3709634665       -2.7992286938        0.5395761065
 C       -11.3401611486       -2.3044278641        1.6598722550
 C       -10.5370059961       -1.5237819035        2.7315869335
 O        -9.3475796454       -1.6619255980        2.8389872839
 C       -11.3761842249       -0.3592019271        3.5562421258
 C       -11.1797891708        1.0189898336        2.7271122928
 O       -12.1066000547        1.4162295325        2.0372805621
 C        -9.8266493354        1.6733657176        2.7646758828
 C        -9.6897334904        3.0758265855        2.1087664482
 C        -8.3767043530        3.7700600097        2.8177555135
 O        -7.6028802016        3.0951022394        3.4419913178
 C        -8.1767727343        5.2820878083        2.5704976285
 C        -8.6437693453        5.6941568537        1.1374985546
 O        -9.7981428630        6.0838051958        1.0328126251
 C        -7.6717409711        5.6136883924       -0.1033828061
 C        -7.1391376854        6.9734617405       -0.6445589388
 C        -8.2665499029        7.6643850047       -1.4606350174
 O        -8.9435583023        6.9749470402       -2.1924807664
 C        -8.5044310125        9.2626395780       -1.3712774316
 C        -9.4127111288        9.3619872809       -0.0969802845
 O       -10.4912180876        8.8059308782        0.0216511400
 C        -8.8752887227       10.1194626725        1.0873357643
 C        -7.1105457916       10.0010977660       -1.2054028193
 C        -9.1742035111        9.7834520054       -2.7236349053
 C        -9.0346645186        6.0789133396        3.5588813974
 C        -6.6277166325        5.5219249807        2.7568263904
 C       -12.8297182137       -0.8283937280        3.7218715829
 C       -10.7241401983       -0.2034023367        5.0128790809
 C        -8.6431126981       -3.4961430702       -1.9872075560
 C        -7.5132471836       -2.3481078736       -0.1360742272
 C       -10.0632080451        1.4058682832       -3.6248962116
 C        -9.0856605666        3.7668967874       -3.8710488194
 C       -13.5250929044        6.1271388591        1.2698221767
 C       -15.4915968934        4.8967341913        0.1601848950
 H       -15.6177453380        8.4353755338       -1.8356686796
 H       -16.1296839769        7.7621090400       -0.3741886538
 H       -16.1175539888        6.7319306661       -1.6508707461
 H       -13.4420523793        2.8217459400       -0.0227987527
 H       -12.0872411276        3.6815179288        0.6332527595
 H       -12.3556847287        2.3215212149       -2.1161542449
 H       -11.3660235166        1.7357896636       -0.7730420770
 H        -6.2786466696        1.7992567562       -2.8772609535
 H        -7.6381269501        1.0517776417       -3.7601615759
 H        -7.3262118367        0.3316696949       -0.7953975765
 H        -6.2455378042       -0.3415039768       -1.9070750866
 H        -9.5588581556       -3.4190634938        1.0093198749
 H       -10.9491098204       -3.4300088816       -0.1782355788
 H       -11.7698832844       -3.0556272223        2.2140601840
 H       -12.1884721489       -1.6838851995        1.2372682912
 H        -9.0858765659        1.0000386915        2.3472602241
 H        -9.5739547690        1.8574045423        3.8002808268
 H       -10.5334702916        3.7484991850        2.2788548263
 H        -9.3707196824        2.9139699779        1.0299567505
 H        -8.0616452577        5.0283121045       -0.8971725498
 H        -6.8514923713        4.9780059524        0.1288535862
 H        -6.3179875565        6.8290226298       -1.3778554387
 H        -6.8433184113        7.6685953364        0.1265287732
 H        -8.4398892851       11.0907735329        0.8163288361
 H        -8.1539523800        9.5406463661        1.6836514656
 H        -9.6438872287       10.2651286892        1.8274643603
 H        -6.4229917729        9.7905728636       -2.0473762914
 H        -6.5474402763        9.7831530152       -0.3354533493
 H        -7.2342928940       11.0992095392       -1.2682379349
 H        -8.4436555569       10.0309636044       -3.4853050100
 H        -9.7452663980       10.6010394923       -2.4233866895
 H        -9.8865292989        9.0564998583       -3.0648532305
 H       -10.0821049353        5.9288634898        3.5239825711
 H        -8.8134229823        7.0960043180        3.3033182645
 H        -8.7060460018        5.9197358643        4.5648655681
 H        -6.3038180549        6.5087197011        2.4203311994
 H        -5.9410318846        4.7869269353        2.2075802152
 H        -6.4043030561        5.5696724803        3.8176812810
 H       -13.3536064377       -0.8235701308        2.7731213686
 H       -13.3326750265       -0.1593950917        4.3625984744
 H       -12.8469666124       -1.8678749692        4.1385900091
 H        -9.6905602576       -0.1173125973        4.9659086511
 H       -10.9386412158       -0.9430772646        5.7294043346
 H       -11.1695443067        0.7572914841        5.3039149732
 H        -7.8656777701       -3.4555312953       -2.7931104698
 H        -9.5459629457       -3.4768454970       -2.5863445410
 H        -8.4649521675       -4.4454859779       -1.4548345237
 H        -7.1196584125       -1.3615690743        0.0746308385
 H        -6.5654660486       -2.8637500558       -0.5106208970
 H        -7.8400694501       -2.9783083574        0.6616521440
 H       -11.0324687945        1.6932519516       -4.0315203278
 H       -10.2727715345        0.5815925951       -2.9884563770
 H        -9.3933800806        1.0252929532       -4.3804494217
 H        -7.9706908036        3.8327731105       -3.9675696149
 H        -9.3266102442        4.7256147528       -3.5125001984
 H        -9.4636077340        3.6419466713       -4.8564974670
 H       -12.7752658357        6.7719452442        0.9298482223
 H       -13.0805618783        5.3328439549        1.9204041356
 H       -14.2895501661        6.6869739482        1.9048703983
 H       -15.8724734465        4.4405334193       -0.7486777640
 H       -16.1915463248        5.6386624741        0.5239322458
 H       -15.2210783349        4.0638976986        0.8343841924
 Na      -11.0025378691        6.6829175138       -1.1324590642
