117

 C       -14.9090451615        6.9470124457       -1.5383026586
 C       -14.0424085899        6.8628190104       -0.2356706160
 O       -14.1952199657        5.9015668037        0.5049947576
 C       -12.8332786848        7.9795397365        0.0824621387
 C       -12.4243495052        7.9452317790        1.6981406531
 O       -11.5904544732        7.1351104364        1.9562954286
 C       -12.8892082513        8.8692005674        2.7812027574
 C       -12.6664947032        8.2588785924        4.1590953200
 C       -14.1350254331        7.9682588049        4.8149786654
 O       -15.0833182619        8.6772896598        4.6506700745
 C       -14.3443958799        6.6518880888        5.7445957298
 C       -13.8878298234        5.4728193282        4.8314615880
 O       -12.7456936883        5.1033893748        4.6843659496
 C       -15.1753174265        4.5087920522        4.2433998183
 C       -14.7699325993        3.0012441286        4.0194274342
 C       -14.0989102571        2.4574121676        2.7307201301
 O       -13.6615022036        3.0741997166        1.8470166320
 C       -13.8470099706        0.7455820708        2.6226291829
 C       -12.2593560830        0.6699578646        3.0033442023
 O       -11.9335403510        0.1303841566        4.0420746996
 C       -11.2426630318        1.2018817306        1.9873644025
 C       -10.4413923360        2.3004187927        2.8915619688
 C        -9.4587978177        3.2728171063        2.2322067359
 O        -9.9199428614        4.2594273992        1.6165117865
 C        -7.9966123737        2.8276100450        2.0403661654
 C        -8.0494557859        1.9843949961        0.6587418810
 O        -8.0331982981        0.8040824536        0.7187953679
 C        -8.1714466587        2.7683148417       -0.6621868237
 C        -7.0643155545        2.3883742775       -1.7891920156
 C        -7.5580600841        2.5863492176       -3.2188130318
 O        -8.7409104988        2.3039434764       -3.4247876956
 C        -6.5334683416        3.0940583650       -4.3087810519
 C        -5.2199537555        2.2803508410       -3.8593888539
 O        -4.6730497361        2.6005269127       -2.8168854142
 C        -4.8191575114        0.8111398417       -4.5846048683
 C        -3.6533048949        0.9299989289       -5.6392487685
 C        -3.8272209690       -0.2526246952       -6.7301793626
 O        -4.5505179127       -1.2548533274       -6.5997435842
 C        -2.7506746732       -0.3698985576       -7.8020888259
 C        -3.3355282338       -0.3256271719       -9.3082725101
 O        -2.8939876572        0.4923694604      -10.1082856530
 C        -4.2983270855       -1.4378412067       -9.7765622197
 C        -1.6417431642        0.7334229456       -7.7226504717
 C        -1.8283793589       -1.6733287777       -7.5131025513
 C        -7.0927447881        2.7177867282       -5.7340781287
 C        -6.3515632786        4.6109685809       -4.2492438342
 C        -6.9814849511        4.0482918731        2.1874922110
 C        -7.5842773896        1.7753880536        3.1653348371
 C       -14.6523105899       -0.0660319169        3.6596506427
 C       -13.9495219230        0.2598144642        1.1667365420
 C       -13.3523872245        6.7100209198        6.8961569668
 C       -15.8219603563        6.6024540338        6.0874011012
 C       -11.4907365407        7.8982532017       -0.7080220543
 C       -13.6406509521        9.1907575409       -0.3796062049
 H       -14.8360425526        7.9434850548       -2.0180527392
 H       -15.9174537174        6.6457911742       -1.3636778950
 H       -14.3467070034        6.3186829244       -2.1253735627
 H       -13.9259789848        9.1542685414        2.7637915258
 H       -12.2319595182        9.7744278315        2.7485438026
 H       -12.2056374064        8.9227529843        4.8081483902
 H       -12.0858530810        7.3569696086        4.1800769980
 H       -15.5201271074        4.9628451085        3.2524012797
 H       -16.0819529646        4.4167912539        4.9132231903
 H       -15.6884203892        2.3937434957        4.0765806879
 H       -14.1401834585        2.8290870604        4.9113386867
 H       -11.6913348960        1.5813948055        1.0212313773
 H       -10.5886417663        0.2827663303        1.8832012934
 H        -9.9478082527        1.5631028738        3.5756255868
 H       -11.1365823411        2.9379827830        3.4781123560
 H        -8.1522064283        3.7945154176       -0.3381616571
 H        -9.0588649544        2.5061030315       -1.1455163541
 H        -6.7677780200        1.3728004999       -1.6476773738
 H        -6.2219953899        2.9780488200       -1.5226982980
 H        -5.7539366441        0.4532870173       -5.0482418315
 H        -4.6096163946        0.0970146839       -3.8520326045
 H        -2.7155073448        0.7732074876       -5.1152978887
 H        -3.4982996217        1.8640800026       -6.1629939217
 H        -5.3022968064       -1.1807815130       -9.9678203328
 H        -4.3457775663       -2.3585212142       -9.1785999031
 H        -3.7066745845       -1.7900239892      -10.7672158749
 H        -1.1422892951        0.7255038373       -6.6856380433
 H        -2.1174253033        1.6041070859       -8.1281396046
 H        -0.9100420075        0.4222971375       -8.4523563376
 H        -1.4874969546       -1.8915701634       -8.5611206937
 H        -2.3975835872       -2.4656191847       -7.1365220053
 H        -1.0448372822       -1.2571868258       -6.9230407673
 H        -7.6440384650        3.4972484506       -6.3144803548
 H        -7.7230160337        1.8575839939       -5.5127155733
 H        -6.2833578248        2.5156934231       -6.5040108552
 H        -5.9777209449        4.6425309844       -3.1909987720
 H        -7.2363550221        5.1999804377       -4.1290262242
 H        -5.7660803236        5.0103939117       -5.0751781307
 H        -5.9908710762        3.9123836101        1.6580036000
 H        -6.7456925539        4.0354645785        3.2615223510
 H        -7.3317074615        4.9399208925        1.8099035648
 H        -7.9655725890        0.7299771478        3.1928474619
 H        -7.8903780663        2.2127546291        4.2124195432
 H        -6.5254005681        1.5320259664        3.2481598372
 H       -15.6751401779        0.0391886123        3.3688170886
 H       -14.5074131264        0.2754774906        4.7506444998
 H       -14.5068471613       -1.1540174207        3.6857028814
 H       -13.4984051501       -0.7083043822        0.9098083511
 H       -13.3245066636        0.9731838926        0.5165619089
 H       -14.9607776194        0.0904950465        0.6976283830
 H       -13.4536316644        5.9492180801        7.7105914214
 H       -13.4575725430        7.6461616328        7.3761464907
 H       -12.3768628700        6.7031207818        6.5198509810
 H       -16.3178271668        7.5026245450        6.6196353835
 H       -16.0842807395        5.8102881133        6.8046488857
 H       -16.4897118335        6.5278672563        5.2314763100
 H       -10.8517787467        7.0706974121       -0.2376468525
 H       -10.8858045062        8.8099234315       -0.5516226423
 H       -11.5258383808        7.4667832285       -1.7025853235
 H       -13.2020824298       10.0954159104        0.0560706892
 H       -14.6695066610        9.0202389434       -0.0375432715
 H       -13.5210392609        9.2718234523       -1.5011744990
 Na      -12.4717785898        5.1487268690        2.0873903329
