117

 C       -15.6267264141        7.4084591198       -1.1439513259
 C       -14.2988008214        6.8391757701       -0.8413989459
 O       -13.3043250601        7.4967340215       -1.0896124564
 C       -14.1894035967        5.3732347173       -0.1960102929
 C       -13.1778368162        4.5248002405       -1.0803890531
 O       -12.8432945747        4.9634004150       -2.1324718904
 C       -12.6315753352        3.1865001412       -0.4084038584
 C       -11.7623683295        2.4010162163       -1.3616090782
 C       -10.6407948086        3.3051446101       -1.8840034232
 O       -10.4157642534        4.4330197408       -1.4862915967
 C        -9.6580912487        2.7132763837       -2.9480578410
 C        -8.3889609247        2.2753767513       -2.1804924077
 O        -8.1746730096        2.7783913595       -1.1188343482
 C        -7.3997328012        1.2047327967       -2.7458432479
 C        -7.1537791344        0.1557818999       -1.6694602744
 C        -8.1714697355       -1.1143557301       -1.9835842612
 O        -8.6047623518       -1.2567552578       -3.1021423466
 C        -8.3340025901       -2.3031972667       -0.9061707304
 C        -9.5383413569       -1.7703317240       -0.0182278892
 O        -9.8102447540       -0.5533369164        0.0580755092
 C       -10.3589418970       -2.8090309905        0.7405916541
 C       -11.3052783680       -2.1743879467        1.7313427505
 C       -10.5957950028       -1.4379724546        2.8884013238
 O        -9.4196154219       -1.6241263297        3.0885038001
 C       -11.3519760961       -0.3042717157        3.6700717749
 C       -11.0911769294        1.1199459532        2.8675536693
 O       -12.0116602666        1.6962730310        2.2733107693
 C        -9.6679643585        1.6908979701        2.7162372760
 C        -9.6705130630        3.2050055341        2.3762519021
 C        -8.3419193040        3.9011019761        2.7996685947
 O        -7.5052968234        3.3280072856        3.4516687302
 C        -8.0661504889        5.3146136140        2.3011332579
 C        -8.6575757105        5.7427703291        0.8887835763
 O        -9.8209326827        6.0715190504        0.8204068319
 C        -7.7794292866        5.5819862705       -0.2995169931
 C        -7.2122066855        7.0060473753       -0.6986174374
 C        -8.1208947214        7.7754826357       -1.6345784959
 O        -8.7591910377        7.1321628064       -2.4310773053
 C        -8.3382743401        9.2713081167       -1.4414284393
 C        -9.4657426394        9.4108153683       -0.2382907639
 O       -10.4841807591        8.7322207702       -0.2598274584
 C        -9.2350578366       10.3469359890        0.9988687559
 C        -7.0647641436       10.0680630712       -1.2551891970
 C        -9.1360631596        9.9932495292       -2.6152622735
 C        -8.7103106857        6.1747131679        3.4222250715
 C        -6.5581882716        5.5355269538        2.3430900055
 C       -12.8744337586       -0.4623775208        3.6958074840
 C       -10.7883541078       -0.2476661373        5.1423817154
 C        -8.7621607909       -3.5442727167       -1.6304418135
 C        -7.0370236786       -2.5495221968       -0.1642447949
 C       -10.3237066914        1.5675993557       -3.7727257285
 C        -9.2769401800        3.9245612573       -3.8924245797
 C       -13.4952928334        5.6558156486        1.2171557295
 C       -15.4888094853        4.6186193714        0.0129147150
 H       -15.5126872772        8.3062884953       -1.8966550421
 H       -16.0593342075        7.9129083865       -0.2144498029
 H       -16.3228849785        6.6912957236       -1.5187723639
 H       -13.4693030928        2.6445245800       -0.0913533145
 H       -12.1248671055        3.3501339200        0.5585078616
 H       -12.3737930068        2.0791615685       -2.2618046696
 H       -11.3495592543        1.5500697404       -0.7921623180
 H        -6.4123367940        1.7523585876       -2.7916599279
 H        -7.7168881202        0.8435969631       -3.6964225931
 H        -7.1872235966        0.6259661351       -0.6726647503
 H        -6.1184540749       -0.1689858814       -1.7424247072
 H        -9.6554467696       -3.4566190916        1.2383049790
 H       -10.9150310791       -3.4804385018        0.0845192029
 H       -11.9990974607       -2.9233991197        2.1427592420
 H       -11.9963572866       -1.4565657271        1.2385176515
 H        -9.2983280754        1.1241002750        1.8043396940
 H        -8.9784617911        1.4941007448        3.5019398918
 H       -10.4774518106        3.6537784096        2.8962583928
 H        -9.6613026389        3.2988385595        1.2728856052
 H        -8.4468683329        5.1121172188       -1.1004860182
 H        -7.0174429687        4.8456779113       -0.2638633077
 H        -6.2734703000        6.8868821095       -1.2698315514
 H        -7.0232611103        7.5873817018        0.1982736016
 H        -9.4569092003       11.4110835478        0.7002385066
 H        -8.2080347707       10.4158072985        1.4449564547
 H        -9.8010366655       10.0159853341        1.8467874099
 H        -6.4879282087       10.0203702412       -2.1916146250
 H        -6.4162812952        9.7921913834       -0.4362389737
 H        -7.2683237507       11.1221981976       -1.0702156088
 H        -8.4008868600       10.2975331359       -3.3913286241
 H        -9.7413283656       10.8671808047       -2.2555470137
 H        -9.8105427961        9.2382471936       -3.0420333830
 H        -9.8479395346        6.0895284968        3.5085221052
 H        -8.4990627363        7.2250707217        3.3125548032
 H        -8.4032154318        5.7125999004        4.4107303585
 H        -6.2509176961        6.5759659346        2.2173059276
 H        -6.1352420107        5.0128798571        1.5109361735
 H        -6.0770682314        5.1734681511        3.1893023759
 H       -13.3969622013       -0.4851998773        2.7216277502
 H       -13.3028442146        0.3582790377        4.2577560338
 H       -13.0814355394       -1.4164847535        4.1706918068
 H        -9.7122553053       -0.4794655402        5.1050677638
 H       -11.1780127583       -1.1592327955        5.6385705070
 H       -10.9678700163        0.7222156956        5.6752996877
 H        -8.0241184322       -3.9651307553       -2.2832532463
 H        -9.6302594004       -3.2496259177       -2.2182413632
 H        -9.1780556074       -4.2786881295       -0.8833488974
 H        -6.9883346934       -1.8152698424        0.6477568430
 H        -6.1725501870       -2.2372111833       -0.7415503338
 H        -6.9557000602       -3.5250758856        0.1405367864
 H       -11.2559156462        1.9034043269       -4.2484971840
 H       -10.6298983448        0.7557782567       -3.0664452560
 H        -9.7065691371        1.0821396084       -4.5498164683
 H        -9.1108094528        3.6722979004       -4.9754615295
 H        -8.3652306447        4.3631634741       -3.5543779730
 H       -10.0341261495        4.7163449558       -3.9157357359
 H       -12.4786890264        5.9610630160        1.0761343861
 H       -13.4674258457        4.6866554559        1.7169281403
 H       -14.1473122469        6.4395443932        1.7160992708
 H       -15.9562559803        4.5996751613       -0.9741084273
 H       -16.1319371428        5.2060423115        0.7099641278
 H       -15.2538639414        3.6782750696        0.4824894749
 Na      -11.1929221292        6.5780619504       -1.1158270651
