117

 C       -15.6105576614        7.2949193995       -0.3840878700
 C       -14.3067081916        6.4970944344       -0.3615476972
 O       -13.2332180722        7.0629501814       -0.6145313074
 C       -14.3475006887        4.9961969543       -0.0684746235
 C       -13.5911194565        4.1477447104       -1.2353506155
 O       -13.8215837488        4.3629898810       -2.4133203910
 C       -12.6939458598        3.0179055489       -0.8293888587
 C       -11.8640040692        2.3982102296       -1.9561618932
 C       -10.7141775025        3.2186641080       -2.4788785808
 O       -10.6263094605        4.4239468556       -2.3315165365
 C        -9.5850682608        2.4523406449       -3.2542542574
 C        -8.5929454970        1.7361183843       -2.2861109599
 O        -8.7026438083        2.0152146814       -1.1045352980
 C        -7.4354253789        0.9565638694       -2.8490645524
 C        -7.0150461986       -0.2784063238       -1.8806407532
 C        -8.0330408393       -1.4288084393       -1.8466265614
 O        -8.7940657854       -1.5948036258       -2.7874359210
 C        -8.1681762362       -2.2469063717       -0.5178146611
 C        -9.1425608346       -1.5965216281        0.4283774657
 O        -9.0129101501       -0.4392338603        0.7061277081
 C       -10.2382098111       -2.4220542567        1.2145493092
 C       -11.3031169056       -1.6492829789        2.0120069956
 C       -10.5647817952       -0.8378151055        3.1724601114
 O        -9.4397363255       -1.1226416195        3.5294308284
 C       -11.3707246354        0.3502723857        3.8459842545
 C       -10.9832820255        1.6733277716        3.0630558361
 O       -11.8071798487        2.3878672529        2.5796149601
 C        -9.4874252288        1.9741759305        2.9189572895
 C        -9.2046734265        3.2235744673        2.0870215446
 C        -7.8660958118        3.9074187227        2.3955091228
 O        -6.9090911223        3.3164906415        2.8831355391
 C        -7.7505227359        5.4278202768        2.0307996412
 C        -8.5084203744        5.7061323183        0.7525597981
 O        -9.6386882628        6.1078847680        0.8752177032
 C        -7.7727045880        5.6255649181       -0.5991339016
 C        -7.3437647431        7.0376131531       -1.0918280055
 C        -8.5075128203        7.8262982436       -1.6442596449
 O        -9.5044734663        7.2795125856       -2.0837572396
 C        -8.5888726509        9.4012264122       -1.5494653532
 C        -9.7296202320        9.8154612194       -0.5009616555
 O       -10.3818110704        8.9531756957        0.0161388518
 C        -9.9234534561       11.2709546451       -0.0771189918
 C        -7.3144158514       10.1035438992       -1.0849293481
 C        -9.0001568808       10.0473305465       -2.9447175683
 C        -8.3670697547        6.2353433732        3.2102862817
 C        -6.2552943669        5.7573411283        1.9515120527
 C       -12.9020364785        0.1543630590        3.7935386698
 C       -10.9063107758        0.4525737353        5.2993932712
 C        -8.7208966933       -3.7279838556       -0.9152522525
 C        -6.8693823727       -2.5262113123        0.3040834374
 C       -10.2973574713        1.4027790081       -4.1812615437
 C        -8.7289799039        3.4653957717       -4.1343374969
 C       -13.7187113759        4.6240309006        1.3523005875
 C       -15.8251778660        4.5116264866       -0.0526663761
 H       -15.4776923486        8.2545092725       -0.7292629630
 H       -16.0245759614        7.1708128124        0.6125277969
 H       -16.3871304742        6.8717856241       -1.0821585721
 H       -13.3301463396        2.3436467055       -0.2517457184
 H       -11.9314647921        3.3416828298       -0.0446190915
 H       -12.5549821048        2.2549597798       -2.8123570012
 H       -11.4401237222        1.4716943997       -1.6271029628
 H        -6.5842392837        1.5804138220       -2.9868618249
 H        -7.8019181524        0.6120741897       -3.7770564720
 H        -6.9537940234        0.0809178675       -0.8409383299
 H        -6.0518855836       -0.7249785974       -2.2254043892
 H        -9.7127267994       -3.1288501438        1.8794792078
 H       -10.6968205100       -3.1968074180        0.5804918507
 H       -12.0029830414       -2.3519100508        2.4356533494
 H       -11.8249523805       -0.9018418142        1.3035088887
 H        -8.9184672086        1.0603152336        2.5465367742
 H        -9.1629577057        1.9935715621        3.9490839937
 H        -9.9811221848        3.9481027223        1.9967729378
 H        -9.0668943904        2.8341320640        1.0390344190
 H        -8.5527489577        5.2601801552       -1.3296181232
 H        -6.8720494313        5.0450820300       -0.4224574088
 H        -6.5545668118        6.9615833945       -1.8752820462
 H        -6.8667698266        7.5934187642       -0.2977689256
 H        -9.5798835551       11.9596385933       -0.8082504697
 H        -9.4629386963       11.5272956029        0.8406728051
 H       -11.0189769570       11.3640405357       -0.0756102648
 H        -6.4616733485        9.6892471927       -1.6606736719
 H        -7.1156565138        9.8202791704       -0.0895354103
 H        -7.3305733783       11.1949956038       -1.2428579426
 H        -8.2952665600        9.7980615312       -3.7433382880
 H        -9.1258500204       11.0902027837       -2.9901777568
 H        -9.9457257873        9.6088754776       -3.2419242687
 H        -9.3811813208        6.1836534881        3.2912523785
 H        -8.0232716616        7.2850717779        3.3358568379
 H        -7.9412536363        5.8747777880        4.1151188241
 H        -5.9970938964        6.8001994357        2.0627259082
 H        -5.8431784061        5.3542107165        0.9461673477
 H        -5.7511357001        5.1354436949        2.7151483313
 H       -13.3274112297        0.1829701400        2.8135280558
 H       -13.4296838538        0.8427520396        4.3731033901
 H       -13.1938460302       -0.8132478284        4.2772056189
 H        -9.8655924779        0.3724451256        5.3250064633
 H       -11.3831828272       -0.3366766492        5.8034302715
 H       -11.2455133523        1.3463926003        5.8392542142
 H        -8.2665927928       -4.0962480302       -1.8664286348
 H        -9.7810522192       -3.7317604991       -0.9805122197
 H        -8.3645179122       -4.4102621606       -0.2125522791
 H        -6.6495699103       -3.5823395850        0.2081370852
 H        -7.2132684094       -2.3544873793        1.3602090506
 H        -5.9475776573       -2.0452634232       -0.0945919054
 H       -11.3121517991        1.6426239868       -4.5365561667
 H       -10.4225429253        0.5059778807       -3.6538755354
 H        -9.6875567283        1.1378547457       -5.0491849852
 H        -9.1404200446        4.4848037836       -4.0415585278
 H        -8.5157963512        3.2752928116       -5.1636761319
 H        -7.7872576387        3.5246079992       -3.6535573749
 H       -12.6821282896        4.7273593533        1.2513047011
 H       -14.0637478116        3.6127390328        1.5686381611
 H       -14.1069004996        5.2978635845        2.1132943056
 H       -16.1621759808        4.5765837201       -1.0793736919
 H       -16.3274938930        5.1834786041        0.6309820666
 H       -15.8726366587        3.4494442156        0.2595662330
 Na      -11.0731108341        6.0979546876       -0.8774553264
