117

 C       -15.6611693291        7.0957318718        0.0855794728
 C       -14.3745372705        6.3907737457       -0.3372955493
 O       -13.4147387451        6.9581661303       -0.8315130686
 C       -14.4098675833        4.8282378991        0.0307208715
 C       -13.5698434325        4.0532714377       -1.1357413797
 O       -14.0301930927        4.0488231745       -2.2434702613
 C       -12.3728204017        3.2569903751       -0.8225055854
 C       -11.8061015088        2.5059599803       -2.0870921275
 C       -10.6159159312        3.2077506495       -2.7348634904
 O       -10.3069465012        4.3369746940       -2.4609688028
 C        -9.6411817114        2.2915048703       -3.6314800305
 C        -8.7707857473        1.6119233219       -2.4517255014
 O        -9.1465673171        1.8386788344       -1.3044037298
 C        -7.4606313212        0.8744779883       -2.7487256252
 C        -7.2526374621       -0.1208968296       -1.5574983012
 C        -8.0927705674       -1.4386495818       -1.6041482802
 O        -8.8229782165       -1.5789695032       -2.5789150697
 C        -8.1498550821       -2.4019311263       -0.3078231221
 C        -9.0802097819       -1.5219007624        0.6818442513
 O        -8.9404214120       -0.3612005135        0.8736816295
 C       -10.3033258206       -2.2238690901        1.4130227778
 C       -11.1827692288       -1.2677192197        2.1203708937
 C       -10.5568462157       -0.6482237818        3.3475744350
 O        -9.5469971721       -1.0346827505        3.9188866212
 C       -11.3076880752        0.7181614287        3.9795105790
 C       -10.8158235548        1.8445373964        3.0606624032
 O       -11.5569419512        2.3300886077        2.2080716674
 C        -9.3522047870        2.2415671602        3.1731669632
 C        -8.9668613036        3.1661155407        2.0626855478
 C        -7.5412728810        3.7547216334        2.2239344168
 O        -6.5534858780        3.1281583884        2.4423506819
 C        -7.5328226862        5.4633456645        2.0316477968
 C        -8.4241666021        5.7062765591        0.8523922982
 O        -9.6410505776        5.8438189239        0.9278353502
 C        -7.7909418673        5.6293769985       -0.5622939543
 C        -7.4695762307        7.0459581691       -1.1685952839
 C        -8.7268594462        7.7956200566       -1.6870835438
 O        -9.7002393203        7.2554686316       -2.2020962651
 C        -8.7839120613        9.4728471242       -1.6481964051
 C        -9.9931932248        9.8662010185       -0.7398842876
 O       -10.6336963747        8.9878375668       -0.1579208913
 C       -10.2634493497       11.3078610770       -0.6164722839
 C        -7.4789686615       10.0908255367       -1.0582783332
 C        -9.1098723692       10.0207143697       -3.0239414570
 C        -8.0582998836        5.9646629031        3.3486160415
 C        -6.0216981239        5.8343456444        1.8222298471
 C       -12.8485833216        0.5965677623        3.8459127868
 C       -10.8605268831        0.8814019243        5.4773618154
 C        -8.6107879060       -3.8341517739       -0.5429836127
 C        -6.7837751749       -2.4257530930        0.3632016968
 C       -10.3096472226        1.2166893102       -4.4284946399
 C        -8.6628000410        3.2111369695       -4.4817904287
 C       -13.7916313511        4.5057775682        1.3482130611
 C       -15.8399321425        4.1945752216       -0.0370965891
 H       -15.5489559718        8.1208790021        0.0059705752
 H       -15.8491220957        6.7409611071        1.0471213401
 H       -16.5514620363        6.7953586779       -0.5140139859
 H       -12.4340703557        2.5803999617        0.0287881648
 H       -11.6057518642        4.0704953475       -0.5536461357
 H       -12.6292156483        2.4591496552       -2.8017791548
 H       -11.5599797123        1.5024583647       -1.8203926553
 H        -6.6667344746        1.6284490268       -2.7851646330
 H        -7.4506678293        0.3704979471       -3.7217872924
 H        -7.5910463599        0.3540717857       -0.6308545924
 H        -6.1840538647       -0.4399361927       -1.5294308249
 H        -9.9810886756       -3.0859999039        2.0471690480
 H       -10.9426051715       -2.7360681858        0.6571202243
 H       -12.0414528727       -1.7908008675        2.3979821086
 H       -11.3723521302       -0.3901025907        1.4111075096
 H        -8.7572055535        1.2906208675        3.2424836315
 H        -9.1691074682        2.8112553123        4.0900359780
 H        -9.7129991258        3.9013157132        1.8347914527
 H        -8.9618625430        2.6619960411        1.0645256656
 H        -8.4980507012        5.1637715209       -1.2463578486
 H        -6.8190090429        5.1008640815       -0.4722476471
 H        -6.8525832173        6.7856764063       -2.0353075636
 H        -6.8085995453        7.6426626501       -0.5755546115
 H        -9.6212088417       11.9546699033       -1.2141658222
 H       -10.2573726172       11.6464043589        0.4329580596
 H       -11.2647360597       11.4595612915       -1.1647224791
 H        -6.6117203329        9.8496754705       -1.7130979779
 H        -7.2994886703        9.7291197660       -0.0734946872
 H        -7.6232752309       11.1918651984       -1.0398180862
 H        -8.8965877053       11.0799123041       -3.0974036485
 H       -10.1078272233        9.8596246140       -3.2935041616
 H        -8.5559242611        9.5696402832       -3.8467053671
 H        -8.9930557892        5.6117309008        3.6403376393
 H        -8.1442188798        7.0802687098        3.3701110304
 H        -7.4351642620        5.6965657090        4.1449293727
 H        -5.9487775707        6.8059304038        1.4605127756
 H        -5.5812971914        5.1824892198        1.0465812690
 H        -5.4680568042        5.7610940986        2.7687730695
 H       -13.1531736495        0.5458618127        2.8354949215
 H       -13.3231439271        1.4674944310        4.1816363827
 H       -13.3407088206       -0.2741861427        4.3164095492
 H        -9.7728833463        0.7633358271        5.5968600719
 H       -11.2636323151        0.1442676207        6.1661555042
 H       -11.1978954385        1.9142450275        5.7775760217
 H        -7.7296528037       -4.5711428325       -0.6288205135
 H        -9.0067020440       -3.8054151226       -1.5803934303
 H        -9.2662849690       -4.1537025929        0.2207683282
 H        -7.0160342928       -2.4107356549        1.4080231332
 H        -6.0882046002       -1.6286029028       -0.0132661882
 H        -6.2378093135       -3.3830901591        0.1324166433
 H       -10.7098372811        1.7107461445       -5.3692193984
 H       -11.1840631153        0.7265089334       -4.0295592767
 H        -9.5429264611        0.4369056950       -4.6726595390
 H        -8.8117146729        4.2766036622       -4.3384717886
 H        -9.0141778417        3.0459757614       -5.5038520508
 H        -7.6273276287        2.9744535124       -4.4462021553
 H       -12.7525560502        4.9024133971        1.3601215060
 H       -13.9740804586        3.4113736271        1.4523242621
 H       -14.3786997634        4.9119337222        2.1702717248
 H       -16.1971092629        4.2042775246       -1.0921624259
 H       -16.4848672133        4.7051717132        0.6653571051
 H       -15.7223211741        3.0752742832        0.1729202545
 Na      -11.0932293767        6.2556117291       -0.8213817019
