117

 C       -15.3647070786        7.1022982062       -0.0611509769
 C       -14.1988444994        6.1249824286        0.0689143129
 O       -13.0758859403        6.5636638166       -0.1014097516
 C       -14.4469959358        4.6436865095        0.3623834475
 C       -13.8357672356        3.7464554899       -0.9051649610
 O       -14.5868641682        3.5511736864       -1.8542981525
 C       -12.4355428612        3.1011567788       -0.8342746039
 C       -11.9305275949        2.5333635064       -2.2057282350
 C       -10.6185318805        3.2188204965       -2.7041683159
 O       -10.3360217024        4.3686669021       -2.3818411833
 C        -9.5721594584        2.3827915758       -3.5114469386
 C        -8.7291955373        1.6672769647       -2.3503353448
 O        -8.8280594109        2.1315479345       -1.2172256428
 C        -7.7548171795        0.5333358768       -2.6903098851
 C        -7.2980949726       -0.2419361664       -1.4702907596
 C        -8.2679979581       -1.4438404401       -1.0705390549
 O        -9.2497534455       -1.6901120833       -1.6976008496
 C        -8.0467780585       -2.2296322789        0.3456588088
 C        -9.0347161037       -1.4037884032        1.2368992578
 O        -8.6308255462       -0.3637917976        1.7276154242
 C       -10.4401290137       -2.0195119018        1.6153724977
 C       -11.3269448415       -0.9354045253        2.2524230995
 C       -10.7880172346       -0.5551325520        3.6571082616
 O       -10.2340988381       -1.3660302831        4.3512600129
 C       -10.9784883440        0.9587782223        4.1534291776
 C       -10.5244160433        1.8937288068        2.9657121583
 O       -11.3479462545        2.2093398852        2.1174342743
 C        -9.1033479671        2.3069033771        2.8473959283
 C        -8.7139560225        2.9347074729        1.5802337900
 C        -7.4466554894        3.7433471026        1.6620679310
 O        -6.3487835679        3.2130110415        1.5405747710
 C        -7.5464328479        5.3660441079        1.6842203881
 C        -8.2445305249        5.6934418799        0.2610641109
 O        -9.4745712319        5.6820455693        0.2434742744
 C        -7.4070571059        5.9311456457       -1.0039408504
 C        -7.3230598088        7.4733660160       -1.2907946766
 C        -8.5540936540        8.0012096160       -2.1222634702
 O        -9.0905764884        7.3450773472       -3.0037830872
 C        -9.0917981740        9.5200255669       -1.9787590666
 C       -10.5324615599        9.4624431209       -1.4206552481
 O       -11.2495011499        8.5114837136       -1.5146330261
 C       -11.0842952931       10.7241789015       -0.7447738006
 C        -8.1518016954       10.4540919471       -1.0495510980
 C        -9.2626775138       10.1355681474       -3.4173870333
 C        -8.4109539849        5.8074835850        2.8543775846
 C        -6.1434391394        5.9528299628        1.8026657440
 C       -12.5364583831        1.1437890258        4.3000053546
 C       -10.1693213278        1.1071925956        5.3973212810
 C        -8.3983352808       -3.7284818492        0.1334345467
 C        -6.5570159061       -2.0406847839        0.8910611592
 C       -10.0938358077        1.3348426949       -4.5661115261
 C        -8.5554280143        3.2945143388       -4.1193212906
 C       -13.6566272141        4.3851456730        1.6937881454
 C       -15.8781344268        4.1971988298        0.5340574395
 H       -14.8352039674        8.1061826405       -0.2581949287
 H       -15.9281289357        7.3737212033        0.8185871362
 H       -15.9789705935        6.7284979401       -0.8437951474
 H       -12.5209348971        2.3006606234       -0.1458972232
 H       -11.6116221412        3.7030301574       -0.4589583830
 H       -12.7574175857        2.5736357465       -2.9695106184
 H       -11.8390091648        1.4448318540       -2.1395517052
 H        -6.9196828723        1.0683193120       -3.2007571351
 H        -8.0164014917       -0.1254059175       -3.5826659008
 H        -7.3387912082        0.4433753293       -0.6661018554
 H        -6.2855209940       -0.6240866890       -1.6526801386
 H       -10.2652506997       -2.8166107253        2.3535001457
 H       -10.9547627300       -2.3158840245        0.7188541352
 H       -12.2956481139       -1.2638523663        2.4224529142
 H       -11.4607412821       -0.0674789469        1.5312582321
 H        -8.6504425707        1.3665266562        2.9896002265
 H        -8.8759450852        2.9449901624        3.7082452169
 H        -9.5518349846        3.5191832721        1.1215724590
 H        -8.4228280406        2.1674227685        0.8358423913
 H        -7.8139294300        5.4277138741       -1.8237683780
 H        -6.4670694671        5.3321859218       -0.9724081516
 H        -6.3643237206        7.7719448380       -1.7980687451
 H        -7.3647682396        7.9941909053       -0.3227213724
 H       -10.7558274765       10.7319280098        0.2901035111
 H       -12.1374594937       10.7777864866       -0.8895911119
 H       -10.7049328103       11.5798607471       -1.2443044200
 H        -7.1468357311       10.5317238180       -1.4468342082
 H        -8.1818764063       10.0980260676       -0.0229106552
 H        -8.5671055098       11.4646245882       -1.0818131889
 H        -9.3208460158       11.2208855663       -3.3943818976
 H       -10.2098740203        9.8485606213       -3.9579907175
 H        -8.4038757244        9.8371747467       -4.0271900141
 H        -9.5056999414        5.6739403676        2.4584309080
 H        -8.3156911156        6.8419294680        3.2213539635
 H        -8.3658058933        5.2102636309        3.7921720482
 H        -6.1091616238        7.0210259515        1.5317313021
 H        -5.4833316885        5.3824233310        1.2006025455
 H        -5.7775855637        5.8627563699        2.8698915763
 H       -13.0455818940        0.8838033314        3.3692155666
 H       -12.8503750758        2.1849376756        4.5724987398
 H       -12.9725351620        0.5574459105        5.1060878448
 H        -9.1254923687        1.1877029242        5.1055471058
 H       -10.4291703839        0.4064434079        6.1611294739
 H       -10.3714118982        2.0479874543        5.7818746062
 H        -7.5945735853       -4.2712062156        0.5089782144
 H        -8.6252121721       -3.9312546352       -0.9051561910
 H        -9.3319196104       -4.0818553183        0.5949071076
 H        -6.5372835093       -2.1446544907        1.9750943586
 H        -6.2016491822       -1.0599943099        0.7812066399
 H        -5.8586357276       -2.7921654205        0.5188831840
 H       -10.2932601437        1.9298187264       -5.4119233697
 H       -11.0037090315        0.9091054240       -4.1821605497
 H        -9.3986823313        0.5921855932       -4.8711839416
 H        -8.1136212767        2.8022644362       -4.9250994598
 H        -7.7649687631        3.6302708021       -3.4148127289
 H        -9.1660483024        4.1805671059       -4.4143755321
 H       -12.5519430194        4.3559478695        1.5958007078
 H       -13.8635744368        3.4218391941        2.1002308692
 H       -13.9784285274        5.1546595896        2.3078160349
 H       -16.5488409147        4.4559377102       -0.2786760538
 H       -16.3235127600        4.5180750851        1.4237231440
 H       -15.8714332485        3.0967069647        0.6630330867
 Na      -11.0947930515        6.3061468580       -1.2060370195
