117

 C       -15.4403124241        7.1128134470       -0.0228907017
 C       -14.2967029091        6.0985297678       -0.1525175179
 O       -13.2211660009        6.5643865418       -0.4210960170
 C       -14.4367375290        4.6141473519        0.1547500244
 C       -13.7458925196        3.9592942543       -1.1237291511
 O       -14.3022331816        4.0736959119       -2.1892971540
 C       -12.4527354644        3.2928209465       -0.8714876228
 C       -11.8871692757        2.7288245104       -2.1696091942
 C       -10.6102357061        3.3539012580       -2.6919017194
 O       -10.4130363831        4.5261485253       -2.5537090193
 C        -9.5328451277        2.3976553710       -3.4032008263
 C        -8.7080721174        1.6494926131       -2.3278744841
 O        -8.9554178494        1.7816388187       -1.1167908141
 C        -7.7341340906        0.5600290514       -2.7812305114
 C        -7.2128649041       -0.1887955758       -1.5999966242
 C        -8.1631228009       -1.3578236728       -1.3631730871
 O        -8.8648119737       -1.7311935055       -2.3007807868
 C        -8.1045589336       -2.1809075280        0.0312588522
 C        -9.1106150731       -1.3599407259        0.9574762077
 O        -8.8016471978       -0.2823353292        1.3519192041
 C       -10.4609756495       -2.0638669210        1.5442735808
 C       -11.2957176504       -1.0535616465        2.2735352209
 C       -10.6778124083       -0.6109771631        3.5615658201
 O        -9.9176130025       -1.2400311025        4.2541983542
 C       -11.2018834503        0.7858054391        4.1069192346
 C       -10.6589398573        1.8676843876        3.0652285525
 O       -11.3791254393        2.1153443512        2.1014945640
 C        -9.2659568239        2.4196608798        3.1775773183
 C        -8.6847605354        2.8856182645        1.8779955075
 C        -7.3824030539        3.6826616392        1.9170895199
 O        -6.2683112728        3.2459277682        1.9332464074
 C        -7.4815395336        5.2780291331        1.7989390075
 C        -8.3270565538        5.7202730095        0.5628537775
 O        -9.4859432389        6.0742588297        0.7184107985
 C        -7.7319782382        5.7405357369       -0.8543313950
 C        -7.4465213591        7.2701595072       -1.1254180602
 C        -8.6452209223        7.8863527388       -1.9576883502
 O        -9.4109889940        7.2211880724       -2.6651847085
 C        -8.9231855239        9.4495064345       -1.8321517611
 C       -10.2898718823        9.5857518951       -1.0983531424
 O       -10.9791714503        8.6294548771       -0.8049014177
 C       -10.7397747073       10.9430643782       -0.6126815055
 C        -7.8128752032       10.2950322129       -0.9992996968
 C        -9.1677590704       10.0679366738       -3.2756565547
 C        -8.0980336010        5.8284980394        3.0961617506
 C        -6.1039223354        5.9316868176        1.6665650762
 C       -12.6887288165        0.8517516642        4.0239048334
 C       -10.7503544286        1.0013171018        5.5512935088
 C        -8.6292373581       -3.6923653199       -0.1769767362
 C        -6.6177582807       -2.2221614961        0.5686455147
 C       -10.3388779755        1.2498742739       -4.2856026243
 C        -8.5774688019        3.2409891205       -4.3247501907
 C       -13.7345953880        4.3718030481        1.4907169414
 C       -15.8791286476        4.0023305178        0.3369177910
 H       -14.9450938482        8.0949108714       -0.1748206643
 H       -15.8017801045        7.1387634747        0.9470074363
 H       -16.2799072105        6.8955304966       -0.6816274413
 H       -12.5248019939        2.4734331810       -0.1824345926
 H       -11.7204575011        4.0265916130       -0.4384582530
 H       -12.7017031040        2.9448965191       -2.9042906607
 H       -11.8709799343        1.6484660273       -2.1692323255
 H        -6.8471134210        1.0205065457       -3.2857009786
 H        -8.1326249326       -0.0405827974       -3.6438202577
 H        -7.2023190717        0.5071541884       -0.7836478032
 H        -6.2177807607       -0.5948235323       -1.8534521209
 H       -10.1771433691       -2.8416650679        2.2842471815
 H       -11.1208189170       -2.5232229853        0.7696944968
 H       -12.1822303424       -1.5140959881        2.5379193084
 H       -11.4875413345       -0.1267224341        1.6573539631
 H        -8.6219312947        1.6709794802        3.6346177339
 H        -9.4402871060        3.2594795235        3.8576121672
 H        -9.3474258212        3.5090100754        1.2835575041
 H        -8.6570102108        2.0138267373        1.1888200637
 H        -8.4444424750        5.3890691848       -1.5562207479
 H        -6.8603334411        5.0134085217       -0.9744360482
 H        -6.4947457421        7.4038643006       -1.6637992325
 H        -7.2712241812        7.7626122853       -0.1790478218
 H        -9.8748825415       11.6277519661       -0.5087370624
 H       -11.4208403372       10.8712872415        0.2590274461
 H       -11.3040085006       11.3804979382       -1.4974607537
 H        -6.8441146734       10.0030338972       -1.3931191871
 H        -7.9178092088       10.1279843562        0.0428994014
 H        -7.9621213975       11.3689464403       -1.1316010879
 H       -10.1291907160       10.5446996633       -3.5161156320
 H        -8.9929095853        9.3444960940       -4.0835678914
 H        -8.3815312286       10.8403227495       -3.4940466977
 H        -9.1212174843        5.5487872620        3.3748046662
 H        -8.1472722886        6.9388433809        3.0656292035
 H        -7.5786931604        5.4237642355        3.9147360186
 H        -6.2161508695        6.9574961082        1.8297645835
 H        -5.6857173513        5.8085477402        0.6984293987
 H        -5.4118853414        5.5144895233        2.4140064580
 H       -12.9795591446        0.7433683259        2.9755870047
 H       -13.1851596124        1.7527704511        4.4128377838
 H       -13.1956342163       -0.0564111312        4.4362693259
 H        -9.6701343505        0.7039070707        5.7213158124
 H       -11.3118011319        0.3266361306        6.2186350420
 H       -10.8938623797        2.0596136974        5.8303779843
 H        -8.3334225379       -3.9384010092       -1.2259451941
 H        -9.7481340960       -3.7816820715       -0.1164227142
 H        -8.2258319679       -4.4095291780        0.5364754442
 H        -6.4362621284       -3.1710372149        0.9827286483
 H        -6.4096582927       -1.4327200227        1.2557160486
 H        -5.9149509342       -1.9879070074       -0.2305907990
 H       -11.3181259236        1.5944639880       -4.6632173394
 H       -10.4227416773        0.3857832849       -3.6505844465
 H        -9.7573552580        1.0151798199       -5.1910163019
 H        -7.6158941628        3.0990765816       -3.8613215650
 H        -8.8263751421        4.3454231347       -4.3255227317
 H        -8.4918122251        2.8174952362       -5.3473077049
 H       -12.7625625738        5.0030504615        1.4571355344
 H       -13.4379229424        3.2954725154        1.5526064302
 H       -14.3415302224        4.7151293472        2.3019500652
 H       -16.4510893023        4.3178640514       -0.5426790006
 H       -16.4295981759        4.2516596522        1.2158336518
 H       -15.7436093629        2.8917649463        0.4098936011
 Na      -11.0163496776        6.3355741500       -1.1796542617
