117

 C       -15.5376305776        7.0748593321        0.0257168353
 C       -14.4136418082        6.1524282410       -0.2261970975
 O       -13.3741895760        6.6065090369       -0.7411830696
 C       -14.4051402412        4.6454212837        0.0484295413
 C       -13.6360486724        4.0068835867       -1.0923000866
 O       -14.1122931857        4.1223067080       -2.2342915665
 C       -12.3130966789        3.2406140995       -0.9084257278
 C       -11.7931017345        2.6300090688       -2.2492012467
 C       -10.5410145900        3.2993717281       -2.7386437969
 O       -10.2542123257        4.5107519770       -2.5733496098
 C        -9.6040791989        2.2981201042       -3.5091667200
 C        -8.8502624905        1.6525777752       -2.2504004533
 O        -9.1697923968        1.9337037527       -1.1221699015
 C        -7.6458295942        0.8055718207       -2.6943640689
 C        -7.2275684051       -0.2880329735       -1.6653284102
 C        -8.1772756832       -1.4953988995       -1.5256613289
 O        -8.8811874963       -1.8302657992       -2.4244563554
 C        -8.1780915926       -2.2160508868       -0.1811746016
 C        -9.0852617566       -1.3862463766        0.8427832827
 O        -8.7394268389       -0.2236946653        1.1265273373
 C       -10.2331223899       -2.1499892188        1.4170482401
 C       -11.2961282129       -1.2140894613        2.1770834722
 C       -10.6923532705       -0.6191439374        3.5378090857
 O        -9.7133199170       -1.1429665090        4.0385386886
 C       -11.3300184909        0.7080074311        4.0292408218
 C       -10.7278424019        1.8170526846        3.0891039247
 O       -11.3119403317        2.2495924652        2.1327774542
 C        -9.2638216586        2.3189307654        3.3176431200
 C        -8.8017225160        2.9550672064        1.9594486598
 C        -7.4786343072        3.7359007461        2.0431681702
 O        -6.3841893539        3.2256412207        2.1518425500
 C        -7.4941479464        5.3884582472        1.8709288827
 C        -8.3908878459        5.7596788358        0.6974575559
 O        -9.5830088698        6.0047081102        0.9255874771
 C        -7.8444195655        5.7666675104       -0.7146025713
 C        -7.4108237395        7.1456992790       -1.2016009322
 C        -8.6736827866        7.8646243901       -1.8214319956
 O        -9.5317746643        7.2609256451       -2.4145652205
 C        -8.8158398302        9.4629559623       -1.6815904977
 C       -10.1822835493        9.7132651637       -0.8307437686
 O       -10.9160726709        8.8715947105       -0.3798305448
 C       -10.5898288669       11.1763372496       -0.6282254496
 C        -7.5537790635       10.1486243276       -1.0926034658
 C        -9.0577149779        9.9056854849       -3.2045174762
 C        -8.0782754326        5.9779482886        3.1480138487
 C        -6.0328333453        5.8322190633        1.7133777188
 C       -12.8654067024        0.6802100864        3.9609091046
 C       -10.8509066364        0.9872169030        5.5258823642
 C        -8.6903006894       -3.6889537531       -0.5285720611
 C        -6.7406357070       -2.1931608294        0.5325079922
 C       -10.3957306883        1.2541661071       -4.3203386506
 C        -8.6314936266        3.0437379231       -4.4426712675
 C       -13.7107972967        4.4434635258        1.5253362542
 C       -15.8267083885        4.1405473120        0.0670650770
 H       -15.1532652777        8.1176673133       -0.1201149608
 H       -15.9466374123        6.8948556865        1.1090227720
 H       -16.3520666361        6.8310889714       -0.6483637005
 H       -12.4542449574        2.3259463390       -0.3108563091
 H       -11.5310841922        3.7695491436       -0.4377550046
 H       -12.5853843243        2.6628205292       -3.0272000936
 H       -11.6155933195        1.5286662320       -2.0486987273
 H        -6.8199241445        1.5182505306       -2.8554470374
 H        -7.7042441248        0.4034112129       -3.7004564001
 H        -7.2625387347        0.1526778004       -0.6527887858
 H        -6.2510852327       -0.6353429309       -1.9558333392
 H        -9.6729907135       -2.8796913469        2.0013118919
 H       -10.7263318811       -2.7309303971        0.6206633609
 H       -12.1896870042       -1.8736054052        2.5190713563
 H       -11.5635401042       -0.4721212037        1.4822645684
 H        -8.6339862205        1.4943342349        3.6412039014
 H        -9.2625771915        3.1353683415        4.0731928081
 H        -9.5421978704        3.6782976679        1.5512012276
 H        -8.8353311303        2.2773643932        1.1267635006
 H        -8.7955542299        5.4989696212       -1.2985494401
 H        -7.1358886933        4.9364895555       -0.7542604847
 H        -6.5483156444        7.2011962299       -1.8770131651
 H        -7.0300672962        7.6704562155       -0.2877771011
 H        -9.8182124024       11.8867433643       -0.8257251832
 H       -10.8480776336       11.1907239961        0.4133395867
 H       -11.3735519190       11.4732043509       -1.2324414980
 H        -6.7476900438        9.8058685964       -1.7160244269
 H        -7.3957176400        9.8959084034       -0.0110667403
 H        -7.6588481592       11.2125274090       -1.1749950550
 H        -9.8705380585       10.6143194047       -3.3346894631
 H        -9.2195684358        9.0744412566       -3.9129189776
 H        -8.2146147255       10.4115004819       -3.6151210129
 H        -9.1554375930        5.7398526598        3.2557781450
 H        -8.0890727688        7.0369507952        3.1631665858
 H        -7.7500864158        5.4500721611        4.0903531067
 H        -5.8790833120        6.9721673144        1.7672685749
 H        -5.6027092871        5.4781404057        0.7668552540
 H        -5.5269784624        5.3648881364        2.5391416088
 H       -13.2725976817        0.6992769545        2.9346717594
 H       -13.2470343338        1.6026403131        4.4241546507
 H       -13.3416552875       -0.1756297270        4.3553654943
 H        -9.9611396064        0.4702518295        5.7338144398
 H       -11.5122199435        0.5596207410        6.2409169080
 H       -10.7457342329        2.0228753168        5.6723043512
 H        -8.2688698556       -4.0019792202       -1.4194429413
 H        -9.7391303645       -3.7891189921       -0.6542377999
 H        -8.3265473684       -4.2613920943        0.3361192008
 H        -6.8777496046       -2.6986208195        1.5209332406
 H        -6.3837908766       -1.1800623506        0.5455552714
 H        -5.9947913198       -2.6560385517       -0.0702813253
 H       -10.8011935525        1.7007860645       -5.1892316638
 H       -11.2320304600        0.8249601917       -3.7531002325
 H        -9.7504718902        0.4503921634       -4.6015003151
 H        -7.8767268368        3.6355651368       -3.8959986252
 H        -9.1888249661        3.6790717259       -5.0967342998
 H        -8.0687079110        2.2955949399       -5.0229825045
 H       -12.6852157614        4.5907498034        1.4108457274
 H       -13.9775529541        3.4711155788        1.8419940272
 H       -14.0964486851        5.1581839120        2.2569328677
 H       -16.2427700054        4.3664285151       -0.9088523163
 H       -16.4390514442        4.5635705924        0.9130852056
 H       -15.7788400746        3.0870742805        0.1522083754
 Na      -11.0548650279        6.3375529640       -0.8654265141
