117

 C       -14.5993428211        6.5432597062       -1.3415929769
 C       -13.9245707326        6.8898469554        0.0769167427
 O       -13.9198312041        6.0818245831        0.9654274997
 C       -12.7312080217        7.9414383063        0.0560918428
 C       -12.3318008054        7.9801035536        1.4626143545
 O       -11.5058201258        7.1520819393        1.8760945584
 C       -13.0039199198        8.9169203594        2.4583239253
 C       -12.9256263270        8.3983592129        3.9762491805
 C       -14.2643369923        8.0620745584        4.6237627742
 O       -15.1691534782        8.8246869524        4.7042570386
 C       -14.3027373570        6.6079060955        5.4913620418
 C       -13.9584943252        5.2135728968        4.7820216770
 O       -12.7514285767        4.9487666429        4.5803611803
 C       -15.1108729328        4.2757653691        4.2556619768
 C       -14.8062395489        2.7581658689        4.1823005470
 C       -14.1614424386        2.4824537835        2.8610990741
 O       -13.8233027344        3.3336932822        1.9837292350
 C       -13.8154317801        1.0287144062        2.6574609272
 C       -12.4598408902        1.0027496048        3.2146238707
 O       -12.0819592666        0.4183308450        4.2322571348
 C       -11.2976547455        1.6745394521        2.3238458863
 C       -10.4214594397        2.5809030030        3.1705896997
 C        -9.4758309232        3.3022120688        2.1597721670
 O       -10.0948521506        3.9967280142        1.3808236770
 C        -8.0910680449        2.7938316128        1.8426705136
 C        -8.2780914237        1.9223723457        0.5741322584
 O        -8.1601771783        0.7064366428        0.6679916576
 C        -8.5906505220        2.4945614456       -0.8441968738
 C        -7.3653841757        2.9957517205       -1.7232391535
 C        -7.6084612772        2.8001689942       -3.2627045006
 O        -8.7241254881        2.4723965931       -3.5954390296
 C        -6.4636050691        3.0941719808       -4.2942925149
 C        -5.1469842761        2.1780288581       -3.9423896016
 O        -4.3553170106        2.6802241784       -3.1524326466
 C        -4.9751797011        0.9359061268       -4.7460287578
 C        -3.8556957020        1.0470615857       -5.7095633014
 C        -3.7923737326       -0.3258051193       -6.5975527611
 O        -4.6617270184       -1.1461435147       -6.4157035830
 C        -2.7051848334       -0.6047691937       -7.5851693099
 C        -3.1821178962       -0.7078610045       -9.1899416554
 O        -2.6670950896        0.0076133938       -9.9979765724
 C        -4.1493735375       -1.7433049357       -9.5601162268
 C        -1.5933166275        0.4102687758       -7.5331815467
 C        -2.1583466024       -2.1569344113       -7.3803381310
 C        -7.0693035426        2.7293153855       -5.6996347237
 C        -6.1365153763        4.6668666654       -4.1572971824
 C        -7.2256803896        4.0060907821        1.6243503341
 C        -7.4196478731        1.9384779173        3.0800497376
 C       -14.7740972916        0.1029753603        3.4387434646
 C       -13.8743877024        0.5800617178        1.1634636331
 C       -13.2920864674        6.8834233880        6.6926534693
 C       -15.7229483477        6.6745597977        6.2860624137
 C       -11.5604176735        7.4697343489       -0.8853017908
 C       -13.1169862345        9.4410149515       -0.3705073767
 H       -15.2372163386        7.3634799282       -1.6559753722
 H       -15.1630778710        5.6424252072       -1.2453219414
 H       -13.6725350690        6.5026709585       -1.9921771338
 H       -14.0643473141        9.0566594595        2.2582829942
 H       -12.4654863348        9.8517856625        2.4164874538
 H       -12.4518722566        9.2134240893        4.6777031106
 H       -12.2470789622        7.4926009063        4.0330403763
 H       -15.4043748853        4.5279288484        3.2490599607
 H       -15.9860943684        4.4619792954        4.8488001941
 H       -15.7743895002        2.3001833900        4.1816910684
 H       -14.1187795605        2.3486044558        4.9068388803
 H       -11.5998279943        2.2531993813        1.5077693746
 H       -10.7915790613        0.7972397399        2.0013851748
 H        -9.7714143407        1.9683319932        3.7011898191
 H       -10.9918388446        3.2748508203        3.8269491758
 H        -9.2042297439        3.4233592229       -0.6288217018
 H        -9.2681300226        1.6305043900       -1.2990404870
 H        -6.3338366217        2.6124184625       -1.3572301757
 H        -7.2161348527        4.0708854943       -1.4597304536
 H        -5.8309810741        0.6239876615       -5.3365019844
 H        -4.8730241141        0.0883358474       -3.9866634724
 H        -2.8672161156        1.0906966268       -5.2211459926
 H        -3.8704529867        1.9438971738       -6.3354931227
 H        -5.1731357679       -1.2379536780       -9.4261164912
 H        -4.2605525703       -2.5926924207       -8.8904837928
 H        -4.0355342270       -2.0317638234      -10.5454458075
 H        -0.9146819525       -0.0107100839       -6.8568203112
 H        -2.1450815432        1.3003208868       -7.1788414462
 H        -1.1410998002        0.6393301768       -8.5427911527
 H        -1.4437860025       -2.4433048630       -8.1146841298
 H        -3.1274909088       -2.7262808672       -7.4675868572
 H        -1.7683061048       -2.0598425665       -6.3730542890
 H        -7.7709696166        3.5288373680       -6.0114814238
 H        -7.5715614137        1.7316157343       -5.7755141586
 H        -6.2551764965        2.8924867583       -6.3518352754
 H        -5.5436743914        4.9088136012       -3.3495107241
 H        -7.0162924973        5.3432601076       -4.0851517092
 H        -5.7572002731        4.9036127704       -5.1846938819
 H        -6.1783198381        3.8242052898        1.6062682135
 H        -7.3702077491        4.7502321858        2.4363317404
 H        -7.4668381704        4.3774278167        0.5348157229
 H        -7.8744345625        1.0919304128        3.5549381172
 H        -7.2952375685        2.5530685033        3.8684382157
 H        -6.4924142360        1.4797577341        2.7673165307
 H       -15.8434994611        0.3316386912        3.6153191305
 H       -14.3081605554       -0.0767038193        4.3484124233
 H       -14.7946488540       -0.8519514679        2.9128149571
 H       -13.1541602163       -0.2033676372        0.8263019554
 H       -13.8834892660        1.3607978642        0.4191562293
 H       -14.6960760701       -0.0638028218        0.9906843813
 H       -13.3751385748        6.0859710350        7.3688772751
 H       -13.3623851424        7.8138758439        7.3121295439
 H       -12.2272551483        6.7577707034        6.3202811403
 H       -15.8729503175        7.4719540722        7.0026241497
 H       -15.9645229490        5.8251528842        7.0454886999
 H       -16.5990119886        6.7823167063        5.5781181095
 H       -11.5070368275        6.4335086223       -1.0797517709
 H       -10.6205048964        7.7704482431       -0.4477430341
 H       -11.7210771444        7.7494205992       -1.9331303416
 H       -12.2323222198       10.0742776014       -0.2249110605
 H       -13.9208466373        9.7636879801        0.2804111624
 H       -13.5182702793        9.3497813096       -1.3702741602
 Na      -12.1442847075        4.8932822612        2.2139253962
