117

 C       -15.0030300216        6.4895906044       -0.8409331991
 C       -13.8580525944        5.5643330532       -0.4575198040
 O       -12.7626431808        5.7567803823       -0.9784681967
 C       -13.9577022051        4.5111261697        0.5871130036
 C       -13.5553989084        3.1867396433       -0.3134900676
 O       -14.4491221397        2.5458081846       -0.8522044352
 C       -12.0696096188        2.9165787602       -0.6088553712
 C       -11.8447672719        2.2185081135       -1.9787100007
 C       -10.7492266457        2.8380961710       -2.7805163551
 O       -10.4494304747        4.0214316437       -2.7065161420
 C        -9.8650541316        1.8438956274       -3.6797490719
 C        -8.9436522555        1.1507595970       -2.6688013434
 O        -8.5438315349        1.7540157728       -1.6650295713
 C        -8.4196462613       -0.2972191287       -2.9133382579
 C        -7.7268114573       -1.0201202991       -1.6430483125
 C        -8.7074111332       -1.4689289235       -0.5815561651
 O        -9.8950471984       -1.6472462570       -0.8657175941
 C        -8.0782040897       -1.9086386215        0.7782475507
 C        -9.0141204951       -1.3545168784        1.9138987282
 O        -8.5668137632       -0.5047145790        2.6076363038
 C       -10.4007051473       -1.9478808908        2.1622577071
 C       -11.2733673877       -0.8626653248        2.8725698214
 C       -10.5866790967       -0.4996306548        4.1847714407
 O       -10.2289190531       -1.3156812661        4.9891415768
 C       -10.3991311439        1.0653156095        4.4175590103
 C       -10.3192764704        1.9138460727        3.1630637725
 O       -11.2846138536        2.0648992362        2.4232439563
 C        -8.9732792812        2.6447263452        2.8875066903
 C        -8.8986738866        3.4306111703        1.5730503882
 C        -7.5281648300        4.1745095696        1.5650925474
 O        -6.4411832848        3.6875264979        1.6195426350
 C        -7.6729913537        5.8232002818        1.5770130528
 C        -8.3927006703        6.1800443726        0.3027067337
 O        -9.5771558004        5.9205906095        0.1541926587
 C        -7.5585500799        6.6961677449       -0.8548462559
 C        -7.7710028453        8.1917713750       -1.0924379117
 C        -8.7174773795        8.3836794270       -2.4592096239
 O        -8.9253594327        7.4403316491       -3.1728090405
 C        -9.4539161624        9.7898862029       -2.6734407939
 C       -10.9146504085        9.7102301029       -2.0833755614
 O       -11.3655639524        8.7053040831       -1.5157770318
 C       -11.9402287179       10.8455863282       -2.3218539153
 C        -8.6879276914       10.9280227311       -1.9340854609
 C        -9.5612851286        9.9690567527       -4.2163990374
 C        -8.5283511591        6.1345097949        2.8267727458
 C        -6.2839206962        6.5337941446        1.6792454003
 C       -11.6555960944        1.5559451757        5.2676125952
 C        -9.1615600754        1.0741837985        5.3182584502
 C        -8.0340043120       -3.3867535272        0.5698281042
 C        -6.6268400737       -1.3180048854        1.0385764348
 C       -10.7560893037        0.8374975029       -4.4395228541
 C        -9.1042792932        2.6059882237       -4.7844503541
 C       -12.9400829316        4.7281850442        1.6617980158
 C       -15.3223132229        4.2181832699        1.1257785090
 H       -14.6543398245        7.2822077553       -1.6116377163
 H       -15.4748892014        6.8455386152        0.0200322746
 H       -15.8009560361        5.9176458444       -1.3833412578
 H       -11.6751477781        2.2978210037        0.2121478647
 H       -11.5642771520        3.8315492311       -0.4512086550
 H       -12.7867887779        2.3026251641       -2.4851990500
 H       -11.6807236878        1.1894146355       -1.6304789473
 H        -7.6049116267       -0.1844606520       -3.5978527036
 H        -9.1566973690       -0.8670179046       -3.4160352882
 H        -7.0225212511       -0.2548131344       -1.2542616804
 H        -7.0010148136       -1.7787269617       -1.9734756499
 H       -10.2822830766       -2.8009612598        2.8560869770
 H       -10.8788571316       -2.3231312735        1.2467109628
 H       -12.2486661824       -1.4077793017        3.0090213299
 H       -11.3188252485       -0.0134393389        2.2445046781
 H        -8.1823356516        1.8480721140        2.9021372109
 H        -8.7655510572        3.3170718822        3.6776731295
 H        -9.6611562073        4.2067041014        1.5729648138
 H        -9.1468565449        2.8888310602        0.6233124361
 H        -7.9850382389        6.2925539520       -1.8318218742
 H        -6.5510057893        6.5437092186       -0.6879055212
 H        -6.8347017586        8.7433665979       -1.2583357653
 H        -8.2420711950        8.8138839770       -0.3123695715
 H       -12.2509650931       11.2482207894       -1.3466514925
 H       -12.8713935696       10.3600717891       -2.6550467753
 H       -11.4592609623       11.6160358687       -2.9807427286
 H        -7.7764268026       11.1479917163       -2.4850761038
 H        -8.5009740868       10.7000784841       -0.9041464247
 H        -9.2526132161       11.8635837914       -1.9132689499
 H        -9.8273248355       11.0269944127       -4.4330474374
 H       -10.2993108772        9.3160332316       -4.6060511031
 H        -8.5357963638        9.7449433052       -4.5771420251
 H        -9.5174163022        5.7849790477        2.6727601513
 H        -8.4403874495        7.2182622174        2.9638158109
 H        -8.1196249965        5.6771483322        3.6387946158
 H        -6.3934476955        7.5261620701        1.3656686230
 H        -5.5727263584        6.0131623450        1.0090475860
 H        -5.8137627134        6.5271961546        2.6535782769
 H       -12.5645009646        1.4400038791        4.6587798319
 H       -11.5390524829        2.5299008343        5.6784083516
 H       -11.7639006645        0.8184372911        6.1337490225
 H        -8.2873210115        0.7423802929        4.7240137389
 H        -9.2783812508        0.3258001077        6.1279606216
 H        -8.9344956628        2.1022710575        5.8225745962
 H        -7.4736891788       -3.8832748137        1.4405712407
 H        -7.5115919402       -3.7185310373       -0.3559661701
 H        -9.0581620835       -3.6711633150        0.5991113991
 H        -6.4493828377       -1.5815688215        2.0600472148
 H        -6.4971293957       -0.2152051705        0.8983038587
 H        -5.8523369076       -1.6475509101        0.3264017233
 H       -11.7026326277        1.2812502921       -4.8631347476
 H       -11.0437047218        0.0094213659       -3.8056744275
 H       -10.3442065869        0.4861183564       -5.4143009212
 H        -9.1489253765        1.9730557665       -5.7216857396
 H        -8.0342311435        2.6915691890       -4.5257239164
 H        -9.4958213728        3.5958175970       -4.9940489991
 H       -11.9157536259        4.9581963258        1.2516682908
 H       -12.8308135666        3.9497957196        2.4456208780
 H       -13.2164512222        5.5978278681        2.2978493522
 H       -16.1334978705        4.2475313503        0.3848735715
 H       -15.7008877366        4.9475131170        1.8556420176
 H       -15.3650529610        3.3295059492        1.7822649748
 Na      -10.6520384182        6.3164568398       -1.9077422552
