117

 C       -14.9563412090        6.5795171393       -0.6803784279
 C       -13.7972694973        5.7118670663       -0.2699455269
 O       -12.6896572603        5.9796487082       -0.7165515018
 C       -14.0122421135        4.4156818191        0.5210527958
 C       -13.6495064878        3.1977869241       -0.4228369060
 O       -14.4338248367        2.4387645350       -1.0005089660
 C       -12.1054902029        3.0764267324       -0.6720194556
 C       -11.7194096276        2.1789209620       -1.9108621121
 C       -10.7473442871        2.8784220235       -2.9035253310
 O       -10.4752197227        4.0846970741       -2.9396365029
 C        -9.8891947302        1.9291067879       -3.7602166525
 C        -8.9438131387        1.2297479772       -2.7034710955
 O        -8.6645000431        1.8189552057       -1.6798670012
 C        -8.4458318626       -0.1693484551       -2.9219026952
 C        -7.6977386940       -0.6184868600       -1.6486636941
 C        -8.5366520350       -1.4596083042       -0.7308341485
 O        -9.6937001960       -1.6187307391       -1.0495293908
 C        -8.0421724862       -1.8948074574        0.6956780347
 C        -9.0429969070       -1.4035031047        1.7780294051
 O        -8.6550182725       -0.5261869361        2.5818343308
 C       -10.4909470172       -1.9271330669        1.9272911579
 C       -11.3862297959       -0.9882101121        2.7770355060
 C       -10.6776833400       -0.5183729572        4.0959747816
 O       -10.4901839628       -1.3709691326        4.9264531914
 C       -10.4597201555        1.0918980165        4.5418615623
 C       -10.2142273939        1.8758939824        3.2212698975
 O       -11.1714604652        2.1632526742        2.5139460500
 C        -8.7970625466        2.2968434466        2.8557792816
 C        -8.9048313538        3.1642348090        1.6122493589
 C        -7.6086431153        4.1065411217        1.5327737923
 O        -6.5398279185        3.6188645007        1.4310520324
 C        -7.6830707849        5.7715721488        1.5683131561
 C        -8.3325811532        6.1142275946        0.2538293282
 O        -9.5289835788        5.8614998668        0.0910501267
 C        -7.5694751453        6.5978389490       -0.9741416372
 C        -7.6429057448        8.1046965084       -1.1881419980
 C        -8.7309049627        8.4105338513       -2.2887384847
 O        -9.1794125142        7.5481617291       -3.0664148507
 C        -9.3719175741        9.8334803365       -2.5116682399
 C       -10.8107273143        9.6396680814       -2.0488593941
 O       -11.2597506150        8.5973974951       -1.6655000039
 C       -11.6969305647       10.9040276735       -2.0092713326
 C        -8.7648095751       11.1143300620       -1.8409852026
 C        -9.3635576134       10.1265068103       -4.1289601902
 C        -8.6103296906        6.2869056766        2.7271480208
 C        -6.1910795108        6.1996162473        1.7868911452
 C       -11.7736080420        1.4851540586        5.1658979228
 C        -9.3270896792        1.2402561759        5.5529759927
 C        -8.0653652635       -3.5216916855        0.8390893468
 C        -6.5818641587       -1.3919074746        0.9826328367
 C       -10.7718410013        0.9642493868       -4.5305252209
 C        -8.9254906762        2.7581925258       -4.6850185896
 C       -13.0879099012        4.5169211684        1.7853187619
 C       -15.3989826445        4.1732065126        0.9819236885
 H       -14.5385066474        7.4039763436       -1.1322807023
 H       -15.6816536436        6.7668268098        0.1416363112
 H       -15.4821797674        6.1261637738       -1.4547791365
 H       -11.6473731476        2.7028857190        0.2649212458
 H       -11.6523386794        4.1246264685       -0.7272243350
 H       -12.6862600796        1.9345279548       -2.3785576035
 H       -11.2839434863        1.3325472923       -1.4511033248
 H        -7.9504371915       -0.2624583986       -3.9407984124
 H        -9.2990963755       -0.9035746512       -2.9641500709
 H        -7.4081012152        0.2474480278       -1.0289827803
 H        -6.7068697390       -1.0232950791       -1.8825065651
 H       -10.5138496780       -2.9163076023        2.4170874261
 H       -10.9272277229       -1.9919911278        0.9014411519
 H       -12.2314593636       -1.5924214470        3.0520469170
 H       -11.6691767490       -0.0749597477        2.1372532106
 H        -8.0702012210        1.5277996917        2.6270894751
 H        -8.3974662887        2.8518673130        3.7735346132
 H        -9.7828265118        3.8237461777        1.5401270769
 H        -8.9511472951        2.4699573803        0.7748081687
 H        -8.0505175152        6.0944869020       -1.7799736541
 H        -6.4527920472        6.3555515221       -0.8333668993
 H        -6.7502556592        8.6444295811       -1.4460773182
 H        -8.0411845476        8.5941240066       -0.3113176960
 H       -11.5373361602       11.5093128289       -1.0861142969
 H       -12.7615057732       10.6248023868       -1.9742413899
 H       -11.3556390411       11.4573833673       -2.8448554463
 H        -7.7219462522       11.1714200086       -2.1642226949
 H        -8.8520202171       11.0916745953       -0.7530770124
 H        -9.2741512448       12.0346901074       -2.1304596263
 H       -10.3252898511       10.5394840136       -4.3960899356
 H        -9.1499192986        9.1622942388       -4.7021292304
 H        -8.6072739261       10.8875399882       -4.3020134933
 H        -9.6593950146        5.9366506889        2.5310745522
 H        -8.5616697592        7.3417528402        2.6308360807
 H        -8.2819084252        5.9134987353        3.7442013151
 H        -6.2115789224        7.3007095042        1.5997628877
 H        -5.4071720621        5.7765840408        1.2172851579
 H        -6.0260272274        6.0569894871        2.8764048461
 H       -12.5180436103        1.5736125205        4.3673101393
 H       -11.6114264060        2.4713516380        5.6973873944
 H       -12.1548854611        0.7647069921        5.8576548961
 H        -8.6154201210        0.4026456985        5.4754079935
 H        -9.6972275440        1.0908189825        6.5635045290
 H        -8.8942245784        2.1793354774        5.5524135874
 H        -7.2869717578       -3.8729811108        1.4368935975
 H        -7.7449551715       -3.8913532631       -0.1343766495
 H        -9.0701858908       -3.9112046218        1.2199052733
 H        -6.2477643789       -1.6822752346        1.9676929890
 H        -6.4512144171       -0.3832699935        0.7972023647
 H        -5.9381556726       -1.6969603909        0.2055415944
 H       -10.8467437725        1.1676784150       -5.5439210486
 H       -11.7594659568        0.8654673798       -4.0992832324
 H       -10.3404663473       -0.0001154149       -4.5439448792
 H        -8.7655618034        2.2275831215       -5.5787223001
 H        -7.9687698536        2.9534802394       -4.1521423284
 H        -9.3822134554        3.7372016982       -4.9723637135
 H       -12.0468646099        4.8003445816        1.5823345074
 H       -13.1479507584        3.6178217077        2.3989629849
 H       -13.4138438537        5.2225950551        2.5373304800
 H       -16.0977524875        4.1749014179        0.1731232838
 H       -15.8534544432        4.8584481549        1.6621753205
 H       -15.4934767843        3.2591838032        1.5358734623
 Na      -10.6750720728        6.1966151136       -1.7259629645
