117

 C       -15.1066677075        6.7193811047       -0.4683821630
 C       -13.9044786171        5.8545378144       -0.1018000553
 O       -12.7690071212        6.3162633361       -0.2405880178
 C       -14.1042152608        4.3532024931        0.5253147648
 C       -13.5707242308        3.3533603037       -0.5351461640
 O       -14.2918253361        2.6387741962       -1.1731471488
 C       -12.0242520864        3.1292351009       -0.7007127979
 C       -11.7100323187        2.3421106260       -2.0273311625
 C       -10.7301216922        3.0163843646       -2.9735395828
 O       -10.7526477401        4.2204547245       -3.2027838550
 C        -9.7843371311        2.0777576256       -3.7865394926
 C        -8.9237649272        1.3353348140       -2.5884543462
 O        -8.7814934267        1.9737113538       -1.5988893269
 C        -8.2673890845       -0.0056087453       -2.8596111736
 C        -7.6701912791       -0.6506531763       -1.6051737348
 C        -8.5743599235       -1.4852129130       -0.7612885602
 O        -9.6511418405       -1.8748979901       -1.1427998828
 C        -8.0724598441       -1.9607275538        0.7294173566
 C        -8.9384100075       -1.4097334094        1.8641637299
 O        -8.5512453840       -0.5795657774        2.7224115614
 C       -10.4185202593       -1.7474340878        1.7953419357
 C       -11.4022892877       -0.8608161543        2.5939256791
 C       -10.7628884338       -0.5978669022        3.9432749929
 O       -10.5325293334       -1.4533330288        4.7790819268
 C       -10.6394188333        0.9556841984        4.5045689123
 C       -10.2577079207        1.8831306811        3.2562376854
 O       -11.1271654571        2.1626584182        2.4370061130
 C        -8.8404063350        2.4602084481        3.0761367452
 C        -8.8030761195        3.1519537756        1.7721539910
 C        -7.4636579057        3.9993026920        1.4580272253
 O        -6.4155501035        3.5004738738        1.1972205285
 C        -7.5688421020        5.6360189960        1.4952124228
 C        -8.1451633754        6.0754389148        0.1344739839
 O        -9.3657685614        5.9629884463       -0.0671893286
 C        -7.2924470518        6.6366547373       -0.9255577024
 C        -7.6326755885        8.0632258606       -1.2346485443
 C        -8.6827194363        8.2812595924       -2.2334001496
 O        -9.1152807912        7.3875558971       -2.9547365511
 C        -9.2871837838        9.6751885249       -2.3323893623
 C       -10.8413769969        9.6326532989       -1.9004648776
 O       -11.5137056544        8.6540369479       -2.0499732739
 C       -11.4680790123       11.0103293301       -1.5671748811
 C        -8.4877454583       10.7461952293       -1.5003213681
 C        -9.2945097439       10.2104788716       -3.8352529458
 C        -8.4798019714        5.9711510459        2.7910246153
 C        -6.1847884615        6.2428769478        1.7653485778
 C       -12.0553721952        1.3252718935        4.8958827024
 C        -9.6585523678        0.9685535094        5.6451429583
 C        -8.1953358143       -3.5621299050        0.6307839149
 C        -6.5956783406       -1.5049832709        1.0308323045
 C       -10.6634690613        1.1450563543       -4.5752380728
 C        -8.7499790232        2.9583675109       -4.6070452222
 C       -13.3979280871        4.3323336113        1.9158102325
 C       -15.5567875342        4.0166379157        0.6868242524
 H       -14.8147395271        7.5173824601       -1.0899488359
 H       -15.6514916123        7.0335313607        0.5134441832
 H       -15.8280580018        6.1261849166       -1.0667349125
 H       -11.7361340126        2.6130460400        0.2089445383
 H       -11.3490854610        3.9929775866       -0.7125225571
 H       -12.6671434214        2.1534499953       -2.5414420484
 H       -11.2949168435        1.3945020830       -1.6992884660
 H        -7.6232779576        0.1109315234       -3.6723747180
 H        -8.9987266099       -0.6828784096       -3.3003241565
 H        -7.1096707867        0.0729894391       -1.0450314091
 H        -6.8254805822       -1.3390895617       -1.9353142291
 H       -10.4700574681       -2.7705686934        2.2468413231
 H       -10.6783673224       -1.7299215105        0.7616906539
 H       -12.3241197398       -1.4029775218        2.9046618220
 H       -11.7937933861       -0.0298254924        1.9672708760
 H        -8.2348138338        1.6224075084        3.1432647740
 H        -8.4843010097        3.1691490470        3.8799115712
 H        -9.7060325543        3.7970303949        1.7377814826
 H        -8.7260303565        2.4493405179        0.9634499807
 H        -7.5426356992        5.9733124259       -1.7526396792
 H        -6.1626470492        6.5643919587       -0.7472393992
 H        -6.7576934204        8.6312921397       -1.6230765784
 H        -8.0155735513        8.5676485829       -0.3332987920
 H       -10.8215490179       11.5338539799       -0.8341231460
 H       -12.4363499749       10.7933603799       -1.0597547462
 H       -11.6686935486       11.5897741247       -2.4849796993
 H        -7.4637857390       10.7478284732       -1.8253348023
 H        -8.4732943049       10.5664287691       -0.3927166990
 H        -8.9404726229       11.7017689531       -1.6647267506
 H       -10.2266172456       10.7250763032       -3.9751837570
 H        -9.1872878092        9.3371364781       -4.5181592994
 H        -8.5400532437       10.9269060143       -4.0509085913
 H        -9.4552877485        5.5991861564        2.6358061108
 H        -8.5367568896        6.9651046277        3.0741132344
 H        -8.0088253185        5.2952460475        3.5336438992
 H        -6.1529825313        7.3586665865        1.7827645856
 H        -5.4517043840        5.9280158203        1.0767111355
 H        -5.9474988958        5.8368256240        2.7036891846
 H       -12.8070134376        1.0900981890        4.1409143290
 H       -12.1547597584        2.4391934597        5.0835559462
 H       -12.3192301950        0.7888637101        5.7554296286
 H        -8.6297855126        1.0652761626        5.2276948769
 H        -9.4960922012       -0.0245046344        6.1475341792
 H        -9.8747099603        1.7705705066        6.3463520329
 H        -8.6639293561       -4.0397437475        1.4648515403
 H        -7.1938851960       -3.9475592816        0.6498600526
 H        -8.8562320904       -3.8621165735       -0.2420050893
 H        -6.3329111287       -1.9812840137        2.0388755938
 H        -6.4330693298       -0.4156145282        1.0677510682
 H        -5.7970268238       -1.8081283869        0.3283797559
 H       -11.1474511532        1.7495515571       -5.3749960111
 H       -11.5313411017        0.6817102006       -3.9830400662
 H       -10.0880644388        0.3054849248       -5.0461583037
 H        -7.7552195822        2.5349481313       -4.6864821347
 H        -8.8047414866        3.9046652611       -4.0909730892
 H        -9.1369752267        3.0929716385       -5.6358891369
 H       -12.4270665449        4.7756844164        1.9168254599
 H       -13.4611494961        3.3302276351        2.3644298289
 H       -13.9477459973        4.8971043927        2.7206060744
 H       -16.1292051035        4.0189713511       -0.2616317982
 H       -16.2215886083        4.6328404480        1.3686755592
 H       -15.6828703046        2.9691108660        0.9780576374
 Na      -10.9493987190        6.2377135203       -1.8672718892
