117

 C       -15.8801830478        5.0811443827       -1.2588645991
 C       -14.4228257362        5.2513316330       -0.9195097922
 O       -13.7426041192        5.7295457275       -1.8379732170
 C       -13.8447931171        4.7673893534        0.4148425680
 C       -13.0168984292        3.4651171498        0.0175181894
 O       -13.5646650218        2.5396869108       -0.5879304939
 C       -11.5133349703        3.4952001101        0.1050163178
 C       -10.8030185697        2.4853688665       -0.8109550800
 C       -10.7201667363        2.8940214446       -2.2601154100
 O       -11.0687350747        3.9590657988       -2.7184898940
 C       -10.2458081128        1.8066687882       -3.2206548325
 C        -9.0217285401        0.9502452895       -2.6160723574
 O        -8.1981334924        1.5305296726       -1.8439658267
 C        -8.7991675158       -0.5530667340       -2.9828742220
 C        -7.9458083392       -1.1584176508       -1.8066783309
 C        -8.8284426004       -1.5168615950       -0.5692072886
 O       -10.0372401602       -1.4178407677       -0.6795304005
 C        -8.2170117799       -2.1399890210        0.7524448053
 C        -8.7711093966       -1.1520934026        1.8869021301
 O        -8.2013414367       -0.1495026519        2.2121120521
 C       -10.0170843820       -1.7231031292        2.6091812558
 C       -10.7651847149       -0.6488977897        3.3912585273
 C        -9.8587775717       -0.1119417469        4.4499067900
 O        -8.9769599110       -0.7437302717        4.9831745868
 C       -10.0822331144        1.4426930658        4.8581187078
 C        -9.9084475025        2.2625569135        3.5284944643
 O       -10.8376627147        2.3233521097        2.7343436956
 C        -8.5426427548        3.0068753675        3.2524442955
 C        -8.3039908465        3.4883499150        1.8494720060
 C        -7.3175007834        4.6384753148        1.7705106312
 O        -6.1123374498        4.4607078061        1.8309562113
 C        -7.8729697247        6.1772160532        1.7271613802
 C        -8.4576398945        6.3684257482        0.2394857329
 O        -9.6863383512        6.2638548651        0.0546182639
 C        -7.5046720898        6.7358989198       -0.9112451211
 C        -7.8253990108        8.0703036673       -1.7364322063
 C        -8.9308448298        7.7617330741       -2.8505303993
 O        -9.3221685428        6.6282848783       -3.0678442129
 C        -9.6383193636        8.9713375345       -3.5611952664
 C       -11.0501553350        9.1762503267       -2.7875696896
 O       -11.6297205412        8.2124298894       -2.3395448071
 C       -11.8167735557       10.5196740007       -2.8479194245
 C        -8.7791769305       10.2922528903       -3.6260978392
 C       -10.1005021857        8.5368598936       -4.9507450166
 C        -9.0462578336        6.4509985873        2.6671539564
 C        -6.6494251061        7.1125240545        1.9477258677
 C       -11.4900006582        1.6248442068        5.5262854297
 C        -9.0432681829        1.8528865643        5.9547702602
 C        -8.5003136701       -3.5571142977        0.9016102949
 C        -6.6463491933       -1.9199177179        0.7275189840
 C       -11.3985774279        0.8007195245       -3.5592717828
 C        -9.5984686875        2.5280940499       -4.4572294569
 C       -13.0632499968        5.9953465747        1.0105216879
 C       -14.9325074015        4.3081241724        1.4203191709
 H       -16.0893612984        5.2914270531       -2.2997773176
 H       -16.4214458405        5.7563553354       -0.6712848103
 H       -16.1646480353        4.0681564903       -1.0223539836
 H       -11.2180216390        3.1585351205        1.1264047027
 H       -11.0049245484        4.4336333760       -0.0814155585
 H       -11.1465276445        1.4554302276       -0.7021307950
 H        -9.7688432130        2.3408714402       -0.4934433889
 H        -8.3435101483       -0.7053150156       -3.9049000982
 H        -9.7373696433       -1.0984065957       -2.9435904501
 H        -7.1433447214       -0.4628809961       -1.5870298719
 H        -7.5261459818       -2.1973217988       -2.0299030913
 H        -9.6695571895       -2.6023469681        3.2579483095
 H       -10.5429247914       -2.2091038534        1.7972724335
 H       -11.7758054956       -1.0002816435        3.8062165400
 H       -11.0423622751        0.1745042167        2.7761288339
 H        -7.6537762541        2.5446469758        3.5888785444
 H        -8.6644492351        3.9191214444        3.9213792371
 H        -9.2264008753        3.8472683082        1.3790949624
 H        -7.7527384650        2.7123402640        1.2910632566
 H        -7.3889162822        5.9095456179       -1.6241688433
 H        -6.4519809390        6.8097340862       -0.6089506152
 H        -6.9343423371        8.2948427940       -2.3257150902
 H        -8.0206514379        8.8195405401       -0.9971002343
 H       -12.7867179108       10.2508945631       -2.4046357956
 H       -11.9677871786       10.7941135677       -3.9016051363
 H       -11.3127401309       11.3601258232       -2.3253690381
 H        -7.7285033317       10.2282263156       -3.8831169446
 H        -8.8625827484       10.7669829696       -2.6220090126
 H        -9.1004418615       11.0333082315       -4.3333201543
 H       -10.0970386274        7.4302509801       -5.1176507928
 H        -9.5264949158        8.9975714766       -5.7046609866
 H       -11.1408792920        8.9158873541       -5.1053412648
 H        -9.8226350145        5.7140374683        2.5450099869
 H        -9.3672554203        7.4939706586        2.3252114835
 H        -8.7013687405        6.4351932803        3.6530244366
 H        -6.8233315040        8.1221644310        1.6073896776
 H        -5.7836223772        6.8241839346        1.2946454194
 H        -6.3176167927        7.0559916131        2.9721154710
 H       -12.3078424799        1.2840021636        4.9393370412
 H       -11.5281033974        2.6699824182        5.7701664162
 H       -11.4177195745        1.0776055211        6.4708032822
 H        -8.1063512040        1.8269175334        5.4980270199
 H        -8.9657546473        1.1511910866        6.7301699807
 H        -9.2838241651        2.8257088499        6.3759851315
 H        -7.6481121818       -4.0573725804        1.5074694802
 H        -8.4353947356       -4.0638112140       -0.0680635037
 H        -9.4425689539       -3.6986678797        1.3786152716
 H        -6.3054784417       -2.6451580539        1.4123206734
 H        -6.3526778522       -0.9288725314        0.9755604702
 H        -6.2441037363       -2.0604174638       -0.2694095371
 H       -12.3206595207        1.3110322662       -3.7599864404
 H       -11.4506590101        0.1682136460       -2.7584208943
 H       -11.1486592843        0.2665450538       -4.4371782402
 H        -8.6392770322        2.0769596113       -4.8062037419
 H        -9.4048636488        3.5615561250       -4.3617627214
 H       -10.1971869728        2.4365421690       -5.3319689713
 H       -12.4047786462        6.5148059303        0.2798050485
 H       -12.6785611899        5.8850484339        1.9820894111
 H       -13.7504716795        6.8078476213        1.2563500782
 H       -15.4082650788        3.4124321925        1.0836288184
 H       -15.7102074339        5.0769105615        1.4876784566
 H       -14.5046273090        4.2222479137        2.3994141542
 Na      -11.3218712946        5.9466517513       -1.6258989663
