117

 C       -15.5209959300        4.6717261757       -2.0991468751
 C       -14.4424012507        5.1074539575       -1.1537938995
 O       -13.6309756138        5.9784473396       -1.4376951375
 C       -14.3455351258        4.2520970067        0.1998239061
 C       -13.2371550468        3.2524741396       -0.1927179315
 O       -13.5694792827        2.3381588657       -0.9893532792
 C       -11.8763465380        3.4448562366        0.2699128880
 C       -10.8055487915        2.6787518718       -0.5852782239
 C       -11.0134968839        2.8336931459       -2.1314041091
 O       -11.1190930967        3.9476717302       -2.6392137523
 C       -10.8325490983        1.5379856903       -3.0331132472
 C        -9.2882800219        1.0453871222       -2.6715908794
 O        -8.4792080063        1.8245061580       -2.3055327727
 C        -8.9188279782       -0.4345614156       -2.8691396265
 C        -8.0740129046       -0.9192773900       -1.6789935366
 C        -8.9055781500       -1.7297750283       -0.5873567888
 O       -10.0196372121       -2.1252925304       -0.8296304920
 C        -8.1745711347       -2.0603301066        0.7656549999
 C        -8.7478499965       -0.9281834353        1.7962336563
 O        -8.3856452374        0.2312412649        1.6793317154
 C        -9.6543187199       -1.4472503718        2.9447022588
 C       -10.1223413167       -0.3037604475        3.8944422632
 C        -9.0366851594        0.3740447155        4.7225151340
 O        -7.9764773131       -0.1920821111        4.9355000947
 C        -9.3134131208        1.7864841092        5.2941617477
 C        -9.3375886930        2.8905903087        4.2223887428
 O       -10.3394290471        3.4980316222        3.9143649455
 C        -7.9876997822        3.2357891502        3.5113282216
 C        -8.1043229885        3.7845423716        2.0284135988
 C        -7.3958429287        5.0937485527        1.8648021116
 O        -6.1916730999        5.2018086985        1.8433741003
 C        -8.2979825479        6.4860393924        1.5852011413
 C        -8.9321208714        6.3298931311        0.1714449716
 O       -10.1434472040        6.2159523496        0.0995325921
 C        -7.9526507660        6.2324633237       -1.0120103152
 C        -8.0422639730        7.4382151547       -1.9559173506
 C        -9.0195081360        7.2372794570       -3.0835900907
 O        -9.6436538564        6.2188043198       -3.2104360112
 C        -9.4615793680        8.4135746021       -4.0230863091
 C       -10.5474788199        9.1331656389       -3.0943140074
 O       -11.3130772685        8.4646672745       -2.3979766950
 C       -10.7954134829       10.6577058897       -3.0789562746
 C        -8.2632094948        9.3264731128       -4.3516589692
 C       -10.1004920641        7.8339834206       -5.2758786067
 C        -9.3433805765        6.5655435618        2.7246186777
 C        -7.3564618424        7.7256070064        1.6368111729
 C       -10.7299910453        1.8813985684        6.0036264039
 C        -8.2174035109        2.1213168399        6.3461103695
 C        -8.4501929150       -3.4712859036        1.1084919913
 C        -6.6494041197       -1.6718190313        0.8107884403
 C       -11.9360070197        0.4861611478       -2.6889743579
 C       -10.8445512050        1.8584721146       -4.5637464402
 C       -13.8495729493        5.1335058396        1.3933594962
 C       -15.6903373035        3.5106795158        0.4348501333
 H       -15.3482070095        5.2525394550       -3.0262888988
 H       -16.4685608251        4.7683199545       -1.6508178728
 H       -15.3731151095        3.6737086512       -2.3132167612
 H       -11.8041332071        3.0568632909        1.3297393002
 H       -11.6575261118        4.5408127761        0.2738312538
 H       -10.9377868477        1.6569195354       -0.3148696100
 H        -9.7790232049        3.0358111155       -0.3812489475
 H        -8.3110136361       -0.5482093528       -3.7739341413
 H        -9.6898001153       -1.1271398890       -3.0789881532
 H        -7.6593352221        0.0134748915       -1.1533288018
 H        -7.1855781559       -1.5531731250       -1.8523101051
 H        -9.0843096692       -2.1844181570        3.5101057980
 H       -10.5756172693       -1.7432690100        2.4002594280
 H       -10.8000557144       -0.7916599003        4.6074942605
 H       -10.7697146765        0.4613046925        3.3217750501
 H        -7.3947879648        2.2573036518        3.6444619632
 H        -7.4573415334        4.0157815226        4.0418553664
 H        -9.1411053205        3.8228008795        1.7471250536
 H        -7.7608311938        3.0311414783        1.2895216565
 H        -8.2484627019        5.3385698712       -1.6281905093
 H        -6.9195582287        6.1240055684       -0.7071909661
 H        -7.0894071126        7.5539802893       -2.4234548096
 H        -8.1832971600        8.3886169168       -1.4823094008
 H       -11.5392195515       10.9019702190       -2.3816081116
 H       -11.0356679550       11.0216800468       -4.0338583334
 H        -9.8561529099       11.0256664765       -2.7642413646
 H        -7.6501416681        8.7049560879       -5.0347622906
 H        -7.6258801745        9.6425327892       -3.5464383858
 H        -8.5757292465       10.2162858316       -4.9369316185
 H        -9.8393969846        8.2801779811       -6.1952230776
 H       -11.1921550933        7.9948791532       -5.2125781385
 H        -9.9231391620        6.8098780120       -5.3797011143
 H        -9.9230400035        5.6123622947        2.8292543910
 H       -10.1002659141        7.3284392332        2.7125375381
 H        -8.7450365424        6.7388671865        3.7134360036
 H        -7.9826858623        8.6608884005        1.5070946470
 H        -6.5111767007        7.7001550312        0.9627156962
 H        -6.9861099291        7.8482796568        2.6722142714
 H       -11.4727492604        1.6300398441        5.2348719620
 H       -10.9095722400        2.9219771379        6.2390220790
 H       -10.8087407929        1.2417809410        6.8623128198
 H        -7.2420756791        2.3760960992        5.9177820947
 H        -8.1327284093        1.1884641439        6.9303700334
 H        -8.5027229797        2.9519935054        6.9227164901
 H        -8.3089344608       -4.0370693803        0.2356374351
 H        -9.4334329101       -3.7151074076        1.4884807121
 H        -7.7918166390       -3.8837977682        1.9149425869
 H        -6.3192607105       -1.7840548624        1.8522078069
 H        -6.5183713967       -0.5889001941        0.6140368414
 H        -6.0060166471       -2.3381678674        0.2492485750
 H       -12.8551905635        0.9498283311       -3.0090103373
 H       -11.9799092240        0.2478415797       -1.5831768667
 H       -11.6253960227       -0.3788622047       -3.2887063775
 H       -11.8140528818        2.0564240830       -4.9506107447
 H       -10.4514823412        0.9728614260       -5.1437825293
 H       -10.2386557578        2.7204387191       -4.8610145067
 H       -13.1577168736        5.8094901128        1.0344631251
 H       -13.2701038681        4.5698291970        2.1330367829
 H       -14.6927764043        5.6824738283        1.7586561863
 H       -15.7952425737        2.8131025316       -0.4059116343
 H       -16.4118226188        4.2966536582        0.3926701569
 H       -15.6943977969        2.9615583652        1.3922844170
 Na      -11.4018044315        6.0662940474       -1.7765890238
