117

 C       -15.1226466242        5.1137664026       -2.7985490890
 C       -14.6637558584        5.0543779012       -1.3337892024
 O       -13.7236062853        5.6872142676       -0.9340369744
 C       -15.4262631799        4.2082559810       -0.3325153669
 C       -14.5235714531        2.9144772364       -0.1382161209
 O       -14.9511238447        1.8319451712       -0.4814914414
 C       -13.0206371732        3.0058222603        0.5084370572
 C       -12.1062350711        1.9882430859       -0.2125436143
 C       -11.9303939309        2.1726252874       -1.7020680469
 O       -12.2698825886        3.2439215457       -2.2636644316
 C       -11.2124678255        1.1631863011       -2.5989267425
 C        -9.6984612646        1.1822580657       -2.1663169060
 O        -9.2440057063        2.0754319541       -1.5446712403
 C        -8.7676148603       -0.0428203146       -2.6175168264
 C        -7.8414564089       -0.4720311877       -1.4737338193
 C        -8.6276580130       -1.3225244241       -0.4790218785
 O        -9.7504630041       -1.6666756682       -0.7288662678
 C        -8.0155330673       -1.6122303416        1.0059025563
 C        -8.8697214194       -0.6195963471        1.9152223716
 O        -9.4161027320        0.3710985129        1.4113728495
 C        -9.1113354953       -0.8580697071        3.4626212344
 C        -9.3216361075        0.3974988578        4.2991867896
 C        -8.0063156746        1.1057147605        4.6001602668
 O        -6.9264651458        0.6745197340        4.2512355507
 C        -8.1351701962        2.4001484762        5.4207264300
 C        -8.2120790761        3.5676038428        4.2881282972
 O        -9.2554079730        4.1190903695        4.0587226515
 C        -6.9382584045        3.9481623262        3.5154332063
 C        -7.2224340889        4.4554569781        2.1423370907
 C        -7.2263732974        6.0177881496        2.0884075919
 O        -6.4072457292        6.7392876703        2.6282475715
 C        -8.3624080121        6.6760824002        1.0934410283
 C        -8.9143412098        5.9790044572       -0.1198327608
 O       -10.0799675747        5.7857779288       -0.3226798222
 C        -7.8318258157        5.4968634460       -1.1397749185
 C        -7.7167771025        6.4283572384       -2.2699904074
 C        -8.8510970886        6.3431363704       -3.2595734071
 O        -9.5611194067        5.3725920643       -3.2892762087
 C        -9.2487932196        7.5889198299       -4.0789435189
 C       -10.3597573914        8.4159644503       -3.2767622073
 O       -11.1691057978        7.8302456719       -2.5539997592
 C       -10.4161905170        9.9229866390       -3.4760028453
 C        -8.0082556404        8.5862598942       -4.3496674124
 C        -9.8546812749        7.2005234932       -5.4608762413
 C        -9.5781534556        6.9094566809        2.0867060152
 C        -7.6633181700        7.9939540627        0.6389003411
 C        -9.3991304791        2.4772790243        6.2355408560
 C        -6.8266172406        2.5573434149        6.2547609100
 C        -8.2313121611       -3.0490011365        1.3594590371
 C        -6.5255832641       -1.1352702129        1.1263618500
 C       -11.8309657211       -0.2191135428       -2.3442764988
 C       -11.1614351386        1.4801332642       -4.1484570630
 C       -15.4925092779        4.8790809876        1.0648195253
 C       -16.8283361977        3.6665822454       -0.7406538428
 H       -14.8298088751        6.1402754167       -3.2028357658
 H       -16.1995387167        5.0130858066       -2.9363144111
 H       -14.5806463929        4.3884517069       -3.4008991098
 H       -13.0345133653        2.7435186889        1.6189251590
 H       -12.5188415368        4.0145447256        0.4345935151
 H       -12.4914823412        0.9993342027       -0.0165553867
 H       -11.0983776304        1.9506884659        0.1976867567
 H        -8.1531255870        0.3609872470       -3.3936854996
 H        -9.3595485822       -0.9373632066       -2.9276010396
 H        -7.3928635580        0.3871458202       -0.9743922172
 H        -7.0019225179       -1.0777188623       -1.9658241375
 H        -8.4083911292       -1.6407538823        3.8343175917
 H       -10.0222677187       -1.4565132527        3.4305518369
 H        -9.7696024910        0.1454079527        5.3340028425
 H       -10.0837550153        0.9341133442        3.7786754728
 H        -6.1894313983        3.1684262436        3.5352739280
 H        -6.4343935406        4.7922632538        4.0876169347
 H        -8.2051368406        4.2298670096        1.8320935422
 H        -6.4618097346        4.2218749294        1.3868313985
 H        -8.3259121548        4.4984441427       -1.4289518673
 H        -6.8653664612        5.2807463253       -0.7124944265
 H        -6.8357075014        6.0481274207       -2.8124760798
 H        -7.5329361117        7.4334943630       -1.9712816901
 H       -11.4381443803       10.3056501172       -3.2566871813
 H       -10.0858655892       10.1859119920       -4.5058126115
 H        -9.6534219843       10.2884261510       -2.7366737950
 H        -7.2736353809        8.0413214692       -4.9592539625
 H        -7.5338604976        8.9124833550       -3.4622573736
 H        -8.4257543908        9.4414904601       -4.8984897677
 H        -9.1750810300        7.5098313548       -6.2812178281
 H       -10.8873628293        7.7011165028       -5.5189936614
 H       -10.0008876939        6.1445994851       -5.6271096103
 H        -9.7559302901        6.1033095881        2.8098379584
 H       -10.5484871982        6.9665972495        1.6203595307
 H        -9.4238444607        7.8763931472        2.6329305783
 H        -8.4328120433        8.5068064951        0.0751509033
 H        -6.7858252633        7.7779015980        0.1239166911
 H        -7.4696442600        8.6188976983        1.4757930974
 H       -10.3217451109        2.4308191537        5.6125053727
 H        -9.5320134702        3.4119423414        6.7252330892
 H        -9.5128625220        1.6825935041        7.0001248724
 H        -5.8433748044        2.5611730147        5.6963204377
 H        -6.8679113395        1.6343956939        6.9153790036
 H        -6.8162639745        3.5025453311        6.7951489101
 H        -7.3165321008       -3.5719513334        1.4858593472
 H        -8.7587416627       -3.5051166122        0.5657197523
 H        -8.8021856735       -3.0809969444        2.3343812829
 H        -6.2546120701       -1.0725287630        2.1693848329
 H        -6.3193084704       -0.1736601692        0.6117232211
 H        -5.8568291687       -1.7535767613        0.4956200804
 H       -12.9291776860       -0.2005882087       -2.5111088776
 H       -11.7844717028       -0.4658660219       -1.2406713107
 H       -11.4410203621       -1.0451177040       -2.9882097231
 H       -10.9750587857        0.5377497347       -4.6424530748
 H       -10.3348981889        2.2093713432       -4.2936340356
 H       -12.0280496714        1.9464434066       -4.5328005095
 H       -14.5714651874        5.3613537671        1.3044453321
 H       -15.6968759831        4.0484789286        1.8340352793
 H       -16.3092854775        5.5911887599        0.9560429310
 H       -16.6466854596        2.9537549608       -1.5778308278
 H       -17.4794835100        4.4945153435       -0.9754490651
 H       -17.1607097270        3.0263848456        0.1141296084
 Na      -11.6389219448        5.4302902454       -2.0714545058
