117

 C       -15.0688311260        5.0945602787       -2.8086913060
 C       -14.7004320563        5.0920203794       -1.3075882319
 O       -13.6794520199        5.6418341754       -0.9331556547
 C       -15.4770504929        4.1611306818       -0.3023351962
 C       -14.5470943249        2.8371064023       -0.1142227404
 O       -14.9850207088        1.8128140466       -0.5023720958
 C       -13.1944098995        2.9521824820        0.4563219352
 C       -12.1959733500        2.0010168917       -0.2295045411
 C       -11.9844431486        2.2288282067       -1.7612886046
 O       -12.4123979356        3.2567358483       -2.3054630955
 C       -11.1934655838        1.1169355804       -2.5382033336
 C        -9.6839320610        1.1346313868       -2.0948069743
 O        -9.3270223854        2.1634204020       -1.4485953040
 C        -8.7185824342        0.0560209778       -2.5461688766
 C        -7.8514329849       -0.4119268358       -1.4056972473
 C        -8.6082714216       -1.2642481698       -0.4214382475
 O        -9.6889482768       -1.7949591148       -0.6747213112
 C        -8.0016474863       -1.5259114373        1.0632898575
 C        -8.8730337920       -0.6011018484        1.8933906821
 O        -9.4698125515        0.3336923781        1.4208699910
 C        -8.9693627358       -0.9299204202        3.4036274474
 C        -9.2421611256        0.4080008691        4.2109406541
 C        -7.9590605169        1.2190320916        4.5632744658
 O        -6.8590106171        0.8315206587        4.1985318604
 C        -8.0604208947        2.5523170931        5.4102023242
 C        -8.1176361395        3.6639414540        4.3372392224
 O        -9.2176369945        4.1129956491        4.0305814281
 C        -6.8285277330        4.0343624366        3.5050294385
 C        -7.1439541852        4.4417801743        2.0108679995
 C        -7.2296285982        6.0315126978        1.9621394211
 O        -6.6000842817        6.6012840975        2.8059330646
 C        -8.3074892382        6.7235159003        1.1113528908
 C        -8.8454503989        5.8392170159       -0.1229916502
 O       -10.0703581026        5.7776998902       -0.2697880804
 C        -7.8404206480        5.3945452889       -1.2443022699
 C        -7.6980576125        6.4315560749       -2.3264196671
 C        -8.9634092375        6.3843251257       -3.2722145353
 O        -9.7351085908        5.4746406511       -3.2415832999
 C        -9.3176716073        7.5804123696       -4.2067708555
 C       -10.3697660853        8.3213356103       -3.3051169183
 O       -11.0943522062        7.6724385205       -2.5642455736
 C       -10.4418043216        9.8058793982       -3.4253637004
 C        -7.9503963554        8.4977481061       -4.4208074583
 C        -9.8042343940        7.0921658933       -5.5563573043
 C        -9.5593597234        6.9413998793        2.0442761150
 C        -7.6525681869        8.0622903339        0.6249958942
 C        -9.2922766901        2.5828767315        6.2667423323
 C        -6.6943528840        2.6209419641        6.2669182006
 C        -8.1881290414       -3.0815503722        1.4331796488
 C        -6.5654362673       -1.1452996187        1.3866986157
 C       -11.9206319470       -0.2622514270       -2.4120203273
 C       -11.2297863845        1.5215827569       -4.0600544743
 C       -15.5477826143        4.9321124224        1.0644935665
 C       -16.8451180867        3.7639741800       -0.9275580674
 H       -14.9876964156        6.0467485215       -3.2110033268
 H       -16.0604670156        4.7466029118       -2.9247764630
 H       -14.3912366508        4.4180136532       -3.4071566879
 H       -13.2183902323        2.7439827706        1.5506383019
 H       -12.8090130417        3.9678900927        0.3359172052
 H       -12.5571131366        0.9876951596       -0.1215413393
 H       -11.2143810194        1.9773391308        0.3252213035
 H        -8.0598413312        0.5125770424       -3.3010134796
 H        -9.2917813951       -0.7479785743       -2.9240802349
 H        -7.4018693820        0.4648845434       -0.8276449210
 H        -7.0080156572       -0.9253732067       -1.9469364885
 H        -8.0292810662       -1.4702385007        3.6186080714
 H        -9.7092973496       -1.7618473175        3.5997692976
 H        -9.6984584379        0.1543136897        5.1889821543
 H       -10.0573004981        0.9493304814        3.6059686843
 H        -6.1733292122        3.0989169033        3.4949248438
 H        -6.1851746858        4.8093568309        3.8863263660
 H        -8.0440565349        4.0591248606        1.5751289855
 H        -6.2340939212        4.2849740394        1.3357802182
 H        -8.2211655422        4.4241288951       -1.5620420147
 H        -6.8729217520        5.1849364893       -0.7748788159
 H        -6.7647258209        6.2621664331       -2.8054538779
 H        -7.6760571463        7.4051391395       -1.8775046913
 H       -11.4651840271        9.9803797125       -3.1801517107
 H       -10.2823995070       10.0927649190       -4.4137313936
 H        -9.7636935524       10.3078393654       -2.7368123322
 H        -7.2037384322        7.9757129613       -5.0151299377
 H        -7.5358428681        8.7397107057       -3.4634531849
 H        -8.2359658122        9.4268402677       -4.9155251878
 H        -9.0020716734        7.2635372813       -6.3275292573
 H       -10.7574127132        7.5665307818       -5.8143237249
 H        -9.9893905483        6.0175598937       -5.5860690519
 H        -9.7819604989        6.0635538485        2.6454480526
 H       -10.5932549090        6.9987853027        1.4719530012
 H        -9.4948187125        7.8179947713        2.6920525708
 H        -8.4276414382        8.6700196892        0.0882002366
 H        -6.8341314875        7.7599272358        0.0285975141
 H        -7.3211357764        8.6403303906        1.4230140365
 H       -10.2442468453        2.6620400786        5.6979297178
 H        -9.3693659014        3.4620543389        6.9913250674
 H        -9.3929969832        1.6913467631        6.8471683161
 H        -5.7736442085        2.7325917344        5.6639748831
 H        -6.6839070376        1.5779721411        6.6829296882
 H        -6.6065502444        3.4796387777        7.0093890296
 H        -7.2285952049       -3.5500555498        1.6125933199
 H        -8.6847693629       -3.6320227620        0.6506483616
 H        -8.7041596616       -3.0738628200        2.3117051425
 H        -6.3211378329       -1.4527961933        2.4504864082
 H        -6.4504155320       -0.0185736633        1.2956722197
 H        -5.8834276272       -1.4454704860        0.6413380611
 H       -13.0626383630       -0.2000154645       -2.3326887493
 H       -11.6586388880       -0.8758395603       -1.5193280624
 H       -11.7043424639       -0.7944545056       -3.4092177215
 H       -10.4735186870        1.0310745793       -4.6530711103
 H       -11.1241124107        2.6264019794       -4.0340265097
 H       -12.2371280229        1.3426594209       -4.4557352489
 H       -14.6322356462        5.4660049112        1.0722455219
 H       -15.4398454172        4.2282981780        1.8693832677
 H       -16.4271334937        5.5817294014        1.1385673431
 H       -16.6953318194        3.1235625043       -1.8175122946
 H       -17.2536667002        4.7911713906       -1.1214251535
 H       -17.4518249635        3.1991719759       -0.1749374248
 Na      -11.6502226879        5.3680102194       -2.0290846851
