117

 C       -14.5506579646        6.6803959919       -1.2338149486
 C       -13.6522080666        6.6617384729        0.0275332205
 O       -14.0389103732        5.9962192381        0.9925449335
 C       -12.3833510800        7.5842979793        0.1382560621
 C       -12.0118092221        7.9150627207        1.6131247448
 O       -11.0070997649        7.4454084645        2.1111859387
 C       -12.8668099338        8.8515878789        2.5317186539
 C       -12.8486846175        8.5791876418        4.0389187099
 C       -14.0769788897        7.8457046505        4.4662344566
 O       -15.0792419913        7.8662514106        3.7599197851
 C       -14.1441695997        6.8831196041        5.6775054271
 C       -14.1373457130        5.5302174718        4.8557500651
 O       -13.1569502216        5.1412737145        4.2904501405
 C       -15.3570410443        4.7094130607        4.5836123731
 C       -15.1361514190        3.2502860330        4.1673743102
 C       -14.3438553100        2.9028455759        2.8694125069
 O       -14.1938466983        3.7405661253        2.0268748912
 C       -13.8609631455        1.4106043598        2.8045912547
 C       -12.3543801089        1.4167475684        3.3753976684
 O       -12.2163670734        1.6018106926        4.6066781552
 C       -11.0328407892        1.2509533197        2.5130902176
 C        -9.9858419656        2.2493077098        3.2327158437
 C        -9.5504657620        3.1768202855        2.1250855560
 O       -10.2515729649        4.0694420121        1.5933973756
 C        -8.1327624518        3.0390141739        1.3773891391
 C        -8.4173354835        2.1385132205        0.1757280570
 O        -8.4064650657        0.9252679696        0.3501874490
 C        -8.6825153971        2.7585922359       -1.3256968169
 C        -7.3772728260        2.6317080743       -2.1011708735
 C        -7.6015096653        2.8361710001       -3.8188291502
 O        -8.4654025109        2.2576371085       -4.3564899394
 C        -6.4044332217        3.5119387462       -4.5349316638
 C        -5.3902429690        2.3287443550       -4.2594865205
 O        -4.4407048514        2.6116506564       -3.5255337266
 C        -5.4967559313        1.0330220926       -4.9477410541
 C        -4.2685838716        0.7396330447       -5.9173026484
 C        -4.1950038769       -0.7544605686       -6.2521799509
 O        -5.1345570386       -1.4292526989       -5.9479327342
 C        -2.9186797379       -1.3554274990       -6.9861595318
 C        -2.8774795306       -1.6792148007       -8.6537344513
 O        -2.0492653773       -1.1585197176       -9.3371584447
 C        -4.2923443054       -2.2052446700       -8.9435547339
 C        -1.7428216990       -0.4745508041       -6.6917616243
 C        -2.6095948088       -2.8026108281       -6.4684922199
 C        -6.6057986838        3.7508670800       -6.1810486139
 C        -6.0740212706        4.8813453092       -3.8806277923
 C        -7.6968344391        4.5037051417        0.9266920508
 C        -7.1233665196        2.4230116706        2.4203678955
 C       -14.7281688106        0.3928801761        3.6644314425
 C       -13.9970382998        0.9026640482        1.3306712030
 C       -12.8586002623        7.0600952160        6.5471598096
 C       -15.4369388904        7.1899965581        6.4464068362
 C       -11.4116446717        6.6683001801       -0.5793260942
 C       -12.5308038966        8.9902587699       -0.6688125964
 H       -15.5593629225        6.6001618581       -0.8809949574
 H       -14.3422085454        5.7097142753       -1.8372962036
 H       -14.2217493016        7.5224373667       -1.8916252989
 H       -13.9065168892        8.7592568303        2.0718467741
 H       -12.5466399562        9.8744757750        2.2334607040
 H       -12.5124353042        9.4742885300        4.4801652671
 H       -11.9461016834        7.9031149756        4.1468251665
 H       -15.8506958926        5.3005268855        3.8282889600
 H       -16.0933167764        4.7021701792        5.3670084187
 H       -16.1173614891        2.7172345083        4.1150273104
 H       -14.5530704863        2.8063079207        4.9898995518
 H       -11.2103895308        1.2845753223        1.3986475758
 H       -10.6948641229        0.2361345383        2.6605815307
 H        -9.0142509286        1.7338944016        3.5115547750
 H       -10.4346190371        2.6786467591        4.1065067012
 H        -9.1715132007        3.7388793306       -1.3790580303
 H        -9.3699055649        2.0869814874       -1.7637299404
 H        -6.9924304021        1.6037772486       -2.0882106050
 H        -6.4152141307        3.2342449417       -1.9029287125
 H        -6.5311521132        1.1146033183       -5.4536021327
 H        -5.5517699317        0.2466175510       -4.1790578565
 H        -3.3663290050        1.1292561249       -5.4271214038
 H        -4.3594792304        1.4377261775       -6.7937026153
 H        -4.9311892898       -1.4610958025       -9.4159520051
 H        -4.7800305906       -2.3931751183       -7.9618449988
 H        -4.3602281932       -2.9857486042       -9.5577236827
 H        -1.6467453980       -0.4401541711       -5.5827967983
 H        -1.9443765129        0.4937033698       -7.0393144811
 H        -0.8915032313       -0.9495372035       -7.1142911865
 H        -1.6797964214       -3.0439863538       -6.8936794528
 H        -3.4891551917       -3.3415875591       -6.6661015080
 H        -2.5657244224       -2.7221206800       -5.3860787330
 H        -7.3319004722        4.4578417762       -6.3590939138
 H        -6.9131339856        2.8308302701       -6.6740533047
 H        -5.6451354841        3.7038774031       -6.7101757169
 H        -5.3203962922        4.6530620217       -3.0902100305
 H        -6.9524064446        5.4282940679       -3.5714033943
 H        -5.4767437676        5.5477806851       -4.4124886732
 H        -6.6070267429        4.6074279195        0.8670572882
 H        -8.0152421505        5.1665528372        1.6755401920
 H        -8.3039934640        4.9039495583        0.1097573542
 H        -7.3686688063        1.4750436004        2.7747089292
 H        -6.8115272667        2.9074823205        3.3034597565
 H        -6.1738983900        2.3158215985        1.8660751807
 H       -15.7454603409        0.7134147534        3.7286899330
 H       -14.4145244312        0.1993792025        4.6930052918
 H       -14.6212373492       -0.5241292872        3.0968376020
 H       -12.9752406544        0.6937418101        0.9793961629
 H       -14.4322310481        1.7010777006        0.6832056768
 H       -14.7041346946        0.0804981913        1.1259552594
 H       -12.8339497943        6.2019581564        7.2813922390
 H       -12.9227420052        7.9917703690        7.1782960707
 H       -11.9361356648        6.8492819272        6.0607260940
 H       -15.4594047766        7.8294746516        7.2828343053
 H       -15.7190408580        6.3723123518        7.1376647748
 H       -16.2404668144        7.4503070287        5.7991737509
 H       -10.9054809839        5.9011131897        0.0202999618
 H       -10.6499546061        7.2296148548       -1.1148137168
 H       -11.9334391062        6.1991958622       -1.3953534839
 H       -11.8163557292        9.6582113298       -0.1908009747
 H       -13.5548035894        9.3421738578       -0.6568398297
 H       -12.1945404899        8.6995194184       -1.6302101660
 Na      -12.1827025592        5.0921480131        2.1157749723
