117

 C       -14.9190771136        5.0787468802       -2.9145144664
 C       -14.6262734740        5.1166064738       -1.4104000427
 O       -13.6988431027        5.7106157877       -0.8468643015
 C       -15.5596810148        4.1912356441       -0.4523144298
 C       -14.8541286355        2.7873588155       -0.2139863378
 O       -15.3418691080        1.8104397972       -0.7931530021
 C       -13.5007610781        2.7752559298        0.4315362558
 C       -12.5310585267        1.7845130871       -0.2721386412
 C       -12.1818210601        2.1283467637       -1.7412863236
 O       -12.5181216273        3.2001268503       -2.2416300121
 C       -11.2445375818        1.1714967017       -2.4539623256
 C        -9.8088139557        1.3401467154       -1.8972913986
 O        -9.4745335753        2.3006231324       -1.1637563258
 C        -8.7238081961        0.3469218882       -2.2592805270
 C        -7.9739830591       -0.0619489574       -0.9991179014
 C        -8.4818972948       -1.2865909478       -0.2581956147
 O        -9.0902404319       -2.1777334849       -0.8182426924
 C        -8.0614672737       -1.5064759218        1.2071384822
 C        -8.9606979991       -0.5312651663        2.1882429087
 O        -9.8204948997        0.1413578066        1.7113580289
 C        -8.8354739735       -0.8148749721        3.6955935377
 C        -8.9907441276        0.5319029858        4.4854034807
 C        -7.6986726295        1.3547551281        4.5554888431
 O        -6.6952334864        0.9659811920        3.9869040513
 C        -7.6797974518        2.7449957243        5.2815943268
 C        -7.8559886472        3.6981565558        4.0724998358
 O        -8.8226177981        4.4163066993        3.8814235914
 C        -6.5966071370        3.9083081721        3.1999072961
 C        -6.9925840405        4.4873759535        1.8541315661
 C        -7.3882318383        6.0463106778        2.1066404181
 O        -6.8771924692        6.6766400026        2.9801474154
 C        -8.4195163917        6.7622375166        1.1091627323
 C        -8.8252037046        5.8247547414        0.0089440302
 O       -10.0194538985        5.4683261602       -0.1162493988
 C        -7.8506887680        5.3679409880       -1.1309410786
 C        -7.6678270020        6.1432778913       -2.4339641534
 C        -9.0263471612        6.1075243277       -3.3941713979
 O        -9.5718805382        5.0288950852       -3.5483871778
 C        -9.3821289381        7.3497256239       -4.1868695184
 C       -10.5220524383        8.1385528300       -3.4674342682
 O       -11.4774933484        7.6284381265       -2.9243716079
 C       -10.5441643764        9.6598226406       -3.6661490976
 C        -8.1424519885        8.2493390844       -4.4342714550
 C       -10.0978666801        6.9242939925       -5.5246880695
 C        -9.6697877460        7.1619195038        1.9111112491
 C        -7.5860452340        7.9713698280        0.5701110429
 C        -8.9097755973        2.9988689286        6.2455689433
 C        -6.3408508632        2.9993413907        6.1026060475
 C        -8.1820844971       -2.9970860591        1.6904194101
 C        -6.4996481043       -1.0945981049        1.2703989705
 C       -11.7483918178       -0.2594577518       -2.3264141053
 C       -11.1964684738        1.5731443596       -3.9795701215
 C       -15.6720127385        4.9002302242        0.9542391232
 C       -16.9210862246        3.9317143576       -1.0828440189
 H       -14.2566733804        5.7314270671       -3.3973858167
 H       -15.9890761151        5.3113128552       -3.0078936433
 H       -14.8076658717        4.0226941065       -3.3406126882
 H       -13.6285480079        2.3025339663        1.4583125092
 H       -13.0599372365        3.8019772760        0.4131204440
 H       -12.9887739865        0.8246450925       -0.2115720453
 H       -11.5953145646        1.6233635436        0.2974326548
 H        -8.1843937151        0.8545685422       -3.0899472509
 H        -9.2388248905       -0.4517048005       -2.6916634359
 H        -8.0660356311        0.8411594493       -0.3289900405
 H        -6.8954421841       -0.1372923920       -1.1846952960
 H        -7.8579277588       -1.2150196863        3.9335888067
 H        -9.5590798831       -1.6254101019        3.9575576958
 H        -9.1675816979        0.2229893196        5.5140300727
 H        -9.8083361637        1.2274020498        4.1287572347
 H        -5.9728476050        2.9710930251        2.9865392486
 H        -5.9366997676        4.5246127974        3.7748585255
 H        -7.7188169683        3.9242788745        1.3225860787
 H        -6.1333624815        4.4983270306        1.1445430225
 H        -8.1151759811        4.3247900406       -1.3643252535
 H        -6.8822679866        5.1629272018       -0.6018119711
 H        -6.7955314013        5.7244845211       -2.9219122589
 H        -7.4272356064        7.1893347143       -2.2092661613
 H       -11.4660293132       10.1165757686       -3.2062550912
 H       -10.7456761481        9.7216317812       -4.7598440109
 H        -9.5734146060       10.1558470623       -3.4157664005
 H        -7.3630702088        7.7470152889       -5.0009870401
 H        -7.7996739703        8.5156904023       -3.4305115765
 H        -8.3742083302        9.1534139246       -4.9936131788
 H        -9.6058858211        5.9652199068       -5.8506143014
 H        -9.8371620086        7.5712046933       -6.3488943641
 H       -11.2156615634        6.8114405895       -5.4292941982
 H       -10.3776868185        6.3498207614        2.1429845667
 H       -10.3125287925        7.9493769114        1.4177019216
 H        -9.3082667541        7.5631901610        2.8369634872
 H        -8.2088195438        8.5030911541       -0.1608033002
 H        -6.7036135071        7.5597466418        0.1300936617
 H        -7.3228119053        8.6186444239        1.3602895829
 H        -9.8929310603        2.8328172221        5.8398419665
 H        -8.7583956307        4.0619461774        6.6043063872
 H        -8.9864545287        2.4561488054        7.1486967166
 H        -5.5572983475        2.3637418413        5.6994431702
 H        -6.5017224530        2.7008185653        7.1564542355
 H        -6.0632706464        4.1072072302        6.1093604535
 H        -8.0971842928       -3.6408998695        0.7786141193
 H        -9.2041138411       -3.1329032427        2.1125244406
 H        -7.4546662315       -3.1917238984        2.4052980257
 H        -6.0667302538       -1.2220785751        2.3041227098
 H        -6.2282290684       -0.0596002334        0.9712829647
 H        -5.9707023366       -1.8411330132        0.7413774503
 H       -12.7315416376       -0.4453152766       -2.7983791629
 H       -11.8653790374       -0.7193458162       -1.3610919845
 H       -11.1084940029       -0.9270428374       -2.9382607556
 H       -10.2667504494        1.9867922029       -4.2728239937
 H       -11.9648410938        2.3093339047       -4.1607739981
 H       -11.4395083310        0.6587610105       -4.5250277761
 H       -14.6923547621        4.7147044043        1.4546056256
 H       -16.3908578395        4.4512959408        1.6094667723
 H       -15.9030053890        6.0015478207        0.8304174239
 H       -16.8008014908        3.5011920733       -2.0708778469
 H       -17.4074173561        4.9418808306       -1.0510562831
 H       -17.5775384858        3.3719037439       -0.4297695089
 Na      -11.5412063011        5.3930355833       -1.8624943323
