117

 C       -14.8922527476        5.3090388024       -2.8950912227
 C       -14.6613456452        5.1456387871       -1.4284085201
 O       -13.6050947268        5.5213716280       -0.8903687164
 C       -15.6710017698        4.4089661726       -0.5904255697
 C       -15.1905680048        2.8162438808       -0.5907168283
 O       -15.7103269440        1.9905386144       -1.2383033011
 C       -13.9229427516        2.5454336673        0.3041818563
 C       -13.0322540303        1.4518191409       -0.3075964541
 C       -12.2314195380        2.0449047184       -1.5038944536
 O       -12.6197170951        3.0511613522       -2.0774054602
 C       -11.1347075361        1.1041544290       -2.2619659123
 C        -9.7075080586        1.4385799414       -1.6242831159
 O        -9.5797750281        2.4934960156       -1.0861749763
 C        -8.4666409408        0.4181951315       -1.7928785770
 C        -7.8874485146        0.2456181297       -0.4253975529
 C        -8.2045429759       -1.1472632973        0.1029127536
 O        -8.6642310323       -1.9765121652       -0.6293059249
 C        -7.9213195388       -1.4763882272        1.5873692666
 C        -8.8289200182       -0.5989039781        2.4444008088
 O        -9.5271730397        0.3244829246        1.9639334937
 C        -8.8393898306       -0.7220387358        3.9772485648
 C        -8.8395037102        0.6885190644        4.6121292809
 C        -7.4493439177        1.3710383803        4.5145780180
 O        -6.4887037520        0.8045508823        4.0432708461
 C        -7.3294859323        2.8659755308        5.1382438154
 C        -7.5026342855        3.7369046943        3.8864753834
 O        -8.5768381789        4.2415614647        3.6476491718
 C        -6.3070888755        3.9893681413        3.0158271345
 C        -6.7304557688        4.7018678699        1.7389434059
 C        -7.3452091969        6.1155322441        1.9896529321
 O        -6.9723604563        6.7581023650        2.9200000375
 C        -8.4401659998        6.8763970115        1.0409546690
 C        -9.0559663196        6.0209460615       -0.1024107420
 O       -10.2424429135        5.8404566060       -0.1902046452
 C        -8.0656298542        5.3936118247       -1.2209430754
 C        -8.0046675239        6.1299603450       -2.5245240855
 C        -9.1770412180        5.9052545993       -3.5012260450
 O        -9.8143401261        4.8588199423       -3.4362440279
 C        -9.7003733425        7.0565988887       -4.5109145063
 C       -10.7141782991        7.8804381280       -3.6912691987
 O       -11.5024550015        7.3858872822       -2.9045918014
 C       -10.8857054926        9.3938352978       -4.0415855908
 C        -8.5239062656        7.9217435202       -4.9588213030
 C       -10.3790624101        6.3990392982       -5.7215728736
 C        -9.4783348327        7.5409082792        1.9499375065
 C        -7.6105102495        8.0118348949        0.4651458728
 C        -8.5232008899        3.0894850721        6.0700398594
 C        -5.9378734351        3.0152552528        5.8878261412
 C        -8.3184560925       -3.0321490996        1.7818131294
 C        -6.3868519190       -1.3709975612        1.8691134123
 C       -11.4100753889       -0.4449350710       -2.1679584369
 C       -11.1214511610        1.5177496954       -3.7237612872
 C       -15.6841548652        5.0330967288        0.7991441387
 C       -17.1149563179        4.4575022094       -1.2017045195
 H       -13.8702531889        5.2266515257       -3.3690269436
 H       -15.3516818317        6.2988668073       -3.0699747830
 H       -15.5251920374        4.5885385209       -3.3093267464
 H       -14.2007417235        2.2316555957        1.3305145685
 H       -13.2157219721        3.4077880351        0.2316953031
 H       -13.5841753428        0.5507093972       -0.6394819075
 H       -12.3628304418        1.0687811694        0.4247126504
 H        -7.7604513664        0.8067778944       -2.4929062362
 H        -8.6925314799       -0.5497817832       -2.2153830182
 H        -8.2042390668        1.0593780192        0.2709865501
 H        -6.8098081954        0.4565116072       -0.5447318422
 H        -8.0157107600       -1.3243383042        4.3917889275
 H        -9.8439111939       -1.1254824019        4.2145060147
 H        -9.1475181889        0.6103023121        5.6502141430
 H        -9.5531145354        1.3002377385        3.9899752638
 H        -5.7510618894        3.0569327633        2.8028989015
 H        -5.6801384480        4.6517364487        3.6466902303
 H        -7.4542664088        4.1084213749        1.1228630993
 H        -5.9256821085        4.8613274031        1.0650792237
 H        -8.4621733910        4.3780524094       -1.3346511610
 H        -7.0412465193        5.1967835941       -0.8066611346
 H        -7.1636020824        5.6818263525       -3.0506171754
 H        -7.6860058124        7.1837007375       -2.4139089081
 H       -11.9356276186        9.7587601263       -3.8670406153
 H       -10.6416134367        9.4894626640       -5.1412147166
 H       -10.1962908975        9.9928462828       -3.4014081187
 H        -7.6942753477        7.3063341596       -5.3094208588
 H        -8.0962797490        8.6895743289       -4.2670002781
 H        -8.8924975610        8.4975071733       -5.8055614072
 H        -9.6681467133        6.1912532987       -6.5215206366
 H       -11.2167872602        7.0051533619       -6.1662563056
 H       -10.7974888294        5.4804970289       -5.2884632286
 H       -10.1264084779        6.7128976694        2.3118518162
 H       -10.0186286935        8.3478162401        1.5248487953
 H        -8.9757628458        7.8919813715        2.8958601713
 H        -8.0463436460        8.4420832669       -0.3746837653
 H        -6.6540858594        7.5907149976        0.1236411772
 H        -7.4393676627        8.7109727346        1.3059104713
 H        -9.4341192030        2.9869805972        5.4745093139
 H        -8.6142241547        4.0692929396        6.4468182684
 H        -8.5952085150        2.3829608236        6.9502768479
 H        -5.1128867674        2.8763329702        5.1635284357
 H        -5.8701072353        2.3812655995        6.7739013224
 H        -5.9260198964        3.9793564716        6.3223128866
 H        -7.7073987173       -3.6382820709        1.1305454497
 H        -9.3759052506       -3.0860532806        1.5533012669
 H        -8.1891155568       -3.3273452098        2.8874899282
 H        -6.0888899687       -1.9371034953        2.7294229440
 H        -6.1022875103       -0.3574866639        2.0560836377
 H        -5.7323604369       -1.7950450253        1.0328431137
 H       -12.4352655617       -0.7175678220       -2.2764445638
 H       -11.0535650431       -0.9116097584       -1.2407153419
 H       -10.8573604840       -1.0836284766       -2.8175186163
 H       -11.7381001802        2.4217336612       -3.8389649730
 H       -11.5805237499        0.7730524878       -4.3110604652
 H       -10.1017551565        1.7034269289       -4.0528876757
 H       -14.7353585121        5.5313243859        1.1047103177
 H       -16.0330886362        4.2765417501        1.5502073222
 H       -16.4053624541        5.8447370325        0.8686480804
 H       -17.2019241586        3.7293037688       -2.0506371351
 H       -17.2485526096        5.4444666831       -1.6413189914
 H       -17.9264409356        4.2125160686       -0.5041252048
 Na      -11.6123545755        5.1633747352       -1.8103646383
