117

 C       -14.5062079146        5.4016900010       -2.7878468056
 C       -14.4380806976        5.0548147307       -1.3276260906
 O       -13.3860187187        5.1641212173       -0.6636500395
 C       -15.7092498444        4.4784377620       -0.6364725702
 C       -15.4561408032        2.8928050961       -0.9907616379
 O       -15.8586571591        2.3642646587       -2.0436030699
 C       -14.5483519738        2.1114810907       -0.0189653203
 C       -13.4919087259        1.1822904494       -0.6787431039
 C       -12.4380644029        1.7286237088       -1.5716854097
 O       -12.5961742839        2.8406428798       -2.1473193786
 C       -11.1413169864        0.9217317228       -1.8656842051
 C        -9.9212530181        1.7500484923       -1.2810535419
 O       -10.0443447939        2.9209847996       -0.9033448839
 C        -8.4768759050        1.1573213207       -1.3121834870
 C        -7.8964951851        0.8259479581        0.1439110464
 C        -8.0989978136       -0.7196219281        0.3781563617
 O        -8.2907773503       -1.5239365708       -0.5519910030
 C        -8.0586913294       -1.2856828557        1.8229602456
 C        -8.7407896630       -0.4338036258        2.9107989836
 O        -9.5765516892        0.3711411768        2.6301291827
 C        -8.4657742146       -0.7649548335        4.4043670886
 C        -8.2773597538        0.5494503607        5.1248057487
 C        -7.0850885791        1.3912295881        4.7370734958
 O        -6.1958861067        1.0231233952        4.0022868737
 C        -7.0835951889        2.9455125527        5.0719136592
 C        -7.5497296251        3.7357164753        3.8296217374
 O        -8.7083441602        4.1264001669        3.9062716702
 C        -6.6845584260        3.9320819645        2.6343603942
 C        -7.4083504375        4.7867111036        1.5288878815
 C        -7.2563695512        6.3343590542        1.6257469449
 O        -6.3657020839        6.7566144834        2.3504407625
 C        -8.1218162500        7.2729436675        0.8082645083
 C        -8.8412821325        6.4203776367       -0.2391848374
 O        -9.9619619137        5.9959996768       -0.1539340973
 C        -7.8969910538        5.9978144670       -1.4671672442
 C        -8.2930761679        6.7178439240       -2.7928907350
 C        -9.2270568791        5.8269824483       -3.6021571191
 O        -9.2712707904        4.6214492099       -3.4142202495
 C       -10.1255964930        6.5202418746       -4.7347143688
 C       -11.3030624228        7.2131798069       -4.0346589515
 O       -11.8060729057        6.7483212473       -3.0320528802
 C       -11.8229020068        8.5139707288       -4.6311687022
 C        -9.3115858368        7.3890790870       -5.7075180393
 C       -10.8288852326        5.4423214734       -5.5566718527
 C        -9.1631068822        7.9226146835        1.8152252464
 C        -7.1886378111        8.3365062943        0.2072833630
 C        -8.0695088592        3.1965673209        6.1808041779
 C        -5.5731490184        3.2597351441        5.4559206883
 C        -8.7012537738       -2.6738899899        1.7949187711
 C        -6.5066012780       -1.4320038324        2.1414805037
 C       -11.2774657485       -0.4414112287       -1.1851217743
 C       -11.0284616385        0.8345525287       -3.4000070434
 C       -15.6560731971        4.6893009043        0.9053835639
 C       -16.9924537733        4.8961482715       -1.3940742608
 H       -13.6357771724        5.9781775012       -3.0132288183
 H       -15.2836850891        6.0744967891       -3.0163055592
 H       -14.6014608499        4.4537358371       -3.4351662173
 H       -15.1638323970        1.4770278984        0.6479685404
 H       -14.1257104764        2.7493610762        0.7941524122
 H       -14.0011705410        0.3719513784       -1.2507953041
 H       -12.9419255416        0.7125543096        0.0907812802
 H        -7.8508599219        1.9018342459       -1.8222997761
 H        -8.4908712453        0.1005224936       -1.7532731213
 H        -8.3293854791        1.3470598171        0.9743492410
 H        -6.8529287577        1.0070556616        0.0769403652
 H        -7.5333265515       -1.3287844266        4.5662947081
 H        -9.2682175501       -1.3428188809        4.7940686622
 H        -8.1779540662        0.4498565134        6.1986129399
 H        -9.1331586493        1.1919249787        4.9962411154
 H        -6.4388492661        2.9721753953        2.2308921843
 H        -5.7967367884        4.4469229063        3.0658244931
 H        -8.4865593282        4.5698949618        1.7565415930
 H        -7.0834089625        4.5013409513        0.5637119712
 H        -8.1613103188        4.9469527719       -1.5629375446
 H        -6.8647284863        6.1950873597       -1.2513383451
 H        -7.4057007876        7.0708775644       -3.3591665033
 H        -8.7789687380        7.6428688994       -2.4042325912
 H       -12.7250687427        8.7294630435       -4.1268515135
 H       -11.9003044766        8.3950966018       -5.6523792980
 H       -11.0895239389        9.2948904908       -4.4620075379
 H        -8.7826768113        6.8092618399       -6.4645996897
 H        -8.6424975529        8.0901453528       -5.2827580246
 H        -9.9675759463        7.9679397536       -6.3631605858
 H       -10.2084462388        5.1858482139       -6.4113102227
 H       -11.8023904171        5.8865161889       -5.8747799107
 H       -10.9933975467        4.5456340243       -5.0354761311
 H       -10.0095206269        7.3310089571        1.8835054641
 H        -9.4123888077        9.0139317534        1.6594057252
 H        -8.6466184181        7.8936186335        2.7199598280
 H        -7.8457470560        9.0210876659       -0.3832421461
 H        -6.4016411101        7.8639469638       -0.3576379286
 H        -6.7008620654        8.8898146358        0.9738221552
 H        -9.1010210294        2.9983312787        5.8179551874
 H        -7.9911304822        4.2335221939        6.4726533785
 H        -7.8221704836        2.6163880688        7.0912212647
 H        -4.8597371525        2.8193331662        4.7894084364
 H        -5.3330495086        2.8274283083        6.4450328746
 H        -5.4754593879        4.3332324115        5.3473481721
 H        -9.2295807361       -2.8729453533        2.7057346169
 H        -8.0110022792       -3.4716013183        1.6533999697
 H        -9.4657321089       -2.6623537700        1.0347247844
 H        -6.3631206017       -2.1646147027        2.8974294070
 H        -6.1202932998       -0.4714112850        2.5037493718
 H        -5.8310692313       -1.5672990561        1.2769314203
 H       -12.0203033851       -1.0701068821       -1.6807020579
 H       -11.5963230603       -0.3770567264       -0.1747759267
 H       -10.3729709026       -1.0692249116       -1.2623318533
 H       -11.5540017592        1.7361853215       -3.7663604348
 H       -11.4434518305       -0.1081514436       -3.7975298944
 H       -10.0287231415        0.9662187828       -3.7388645737
 H       -14.7093126874        4.7516325317        1.3215969763
 H       -16.2124659921        3.9591407339        1.5364165516
 H       -16.1640243062        5.6031992541        1.0806356160
 H       -16.9593661509        4.4401941669       -2.4006151449
 H       -17.2067412667        5.9357585801       -1.5264635398
 H       -17.9325486733        4.5510218096       -0.9254791252
 Na      -11.1703926787        4.8085703498       -1.6753555315
