117

 C       -14.2767241037        5.3316588922       -2.8028784636
 C       -14.3602782863        5.0028312519       -1.3501169441
 O       -13.4527133485        5.1654944708       -0.5537942104
 C       -15.6360812808        4.3981937397       -0.7602760743
 C       -15.4327143819        2.8889980102       -1.0312438598
 O       -15.9690155633        2.4348030332       -2.0244212932
 C       -14.6223767457        2.0023839469       -0.0956563247
 C       -13.7404426653        0.9574528252       -0.8717650719
 C       -12.5538144499        1.6481010474       -1.5391307212
 O       -12.7314822030        2.8388341481       -1.8824582210
 C       -11.2199131344        0.9241827952       -1.7867532887
 C       -10.0265853250        1.8263074530       -1.2999561093
 O       -10.1172327675        2.9574369266       -0.9369985448
 C        -8.6510744253        1.1353045743       -1.1436275525
 C        -8.4431084743        0.7739135033        0.4206459214
 C        -8.0107354359       -0.6780099252        0.5093429558
 O        -7.6681140844       -1.3235643873       -0.4688216311
 C        -7.9432734474       -1.4304245098        1.9036226642
 C        -8.5248120170       -0.5142919254        3.0407610794
 O        -9.4807830128        0.1794630625        2.8309875209
 C        -8.0649801520       -0.5905260171        4.5043839626
 C        -8.1577482314        0.7577433259        5.2523077166
 C        -7.0324351663        1.6085593437        4.7343837149
 O        -6.2038047284        1.2014481936        3.9398899600
 C        -6.9731743292        3.1281433264        5.1936211881
 C        -7.7744555900        4.0305022088        4.1504934532
 O        -8.8905999342        4.4545342424        4.3815290543
 C        -7.0434087422        4.0971686733        2.7714322125
 C        -7.7644202735        4.9077290201        1.7249857509
 C        -7.0801784116        6.2742209031        1.4567226524
 O        -6.0077805474        6.6130152192        1.8710400971
 C        -7.9603509471        7.3193475848        0.6640791565
 C        -8.5983444645        6.6679058546       -0.5958220616
 O        -9.7567660230        6.3412066724       -0.5595120603
 C        -7.6487676117        6.3538631959       -1.7702528090
 C        -8.3732490831        6.6752465144       -3.0887851565
 C        -9.2895929171        5.5996671708       -3.7193039502
 O        -9.3455074902        4.4499058479       -3.3681585267
 C       -10.3004469188        6.1111609159       -4.8015237421
 C       -11.4540563776        6.9443928530       -4.0931879779
 O       -11.5896184470        6.8520900245       -2.8944266530
 C       -12.4183541926        7.8565419453       -4.9529701431
 C        -9.6288695450        7.0987160034       -5.8759895179
 C       -10.9169125305        4.9853701676       -5.6177289962
 C        -9.0190254869        7.7329097046        1.7576829216
 C        -7.0195559318        8.5564112968        0.3609215018
 C        -7.6767606964        3.3569397688        6.5685604729
 C        -5.4836902870        3.5510814736        5.2223476388
 C        -8.9084690794       -2.6218308736        1.8871336080
 C        -6.4124025530       -1.8015851602        2.1146476230
 C       -11.1120595716       -0.4670222775       -1.2101905744
 C       -11.0485163709        0.9405185343       -3.3320644926
 C       -15.6788884568        4.7506396268        0.7246574214
 C       -16.9278293544        4.9320042152       -1.4036878233
 H       -13.5808254906        4.6916988960       -3.2746178048
 H       -13.8508527609        6.2780539284       -2.9115196240
 H       -15.2662838022        5.2788527109       -3.3468645608
 H       -15.3187924961        1.4732367469        0.5179957293
 H       -14.1052941426        2.5380018397        0.7003702422
 H       -14.3811633564        0.5936467272       -1.7372498953
 H       -13.4299920133        0.1210272553       -0.2643620837
 H        -7.8834722245        1.8526132105       -1.3047823381
 H        -8.5178801133        0.2006451687       -1.7875649981
 H        -9.3791316968        1.0029710175        0.9355341490
 H        -7.6449090199        1.3221572916        0.9494843646
 H        -7.0164601004       -0.9763621269        4.6539351108
 H        -8.5948513458       -1.3313444986        5.0664377138
 H        -8.2270898148        0.6284818430        6.3471808377
 H        -9.0559223639        1.3088813850        5.0770732415
 H        -6.9472945054        3.0620589844        2.4692378757
 H        -5.9856211441        4.4686969370        2.8474884890
 H        -8.8201546581        5.1571739362        2.1220272511
 H        -7.7986928059        4.3895344897        0.7499121528
 H        -7.4353863819        5.3153402563       -1.9178718722
 H        -6.7596757417        6.9155214192       -1.6812994549
 H        -7.6025397966        7.0819753209       -3.7190477408
 H        -9.0367383240        7.4998802484       -2.8652295199
 H       -13.3430688272        7.9281858970       -4.4469744513
 H       -12.5714367715        7.3474286625       -5.8625912652
 H       -11.9336882625        8.7855837670       -5.1993010916
 H        -8.6191890945        6.7969172115       -6.2150147711
 H        -9.5614196565        8.0956316498       -5.5220745934
 H       -10.1733173332        7.1635891210       -6.8432493692
 H       -10.0683167179        4.3229281268       -5.9787414079
 H       -11.4197059905        5.4099271796       -6.5259398410
 H       -11.6757859125        4.4315408256       -5.0252380307
 H        -9.8949852422        7.0658652776        1.7832856476
 H        -9.4442991385        8.7657491969        1.5347488841
 H        -8.4858035792        7.7301187725        2.6963150995
 H        -7.7229420035        9.2990215762       -0.1004981515
 H        -6.1818987550        8.3932957484       -0.2651582273
 H        -6.6471771898        8.9612875171        1.2384968648
 H        -8.6734387611        2.8819230092        6.5782729709
 H        -7.6019959347        4.4296037268        6.8056569482
 H        -7.1101569522        2.8517670721        7.3517914611
 H        -5.0720051661        3.1212225636        4.2908716184
 H        -4.9301988981        3.1026148507        6.1144316410
 H        -5.2651848274        4.6837041157        5.3371659624
 H        -8.3638004807       -3.4675531189        2.2968964447
 H        -8.9439921171       -2.9231807097        0.8350639685
 H        -9.8665486495       -2.5436668436        2.3054156938
 H        -6.2030170599       -2.4227864091        2.9905053867
 H        -5.7813245781       -0.8703270765        2.2437468156
 H        -5.9814073129       -2.4071939408        1.3244545842
 H       -12.0325427434       -1.0513870213       -1.5484631238
 H       -11.0609731137       -0.4354449620       -0.0978145121
 H       -10.1500046444       -0.9908900796       -1.5687647612
 H       -10.7330305600        1.9387823207       -3.5817312893
 H       -12.0279259644        0.7895570779       -3.8417618612
 H       -10.3526285075        0.2340946021       -3.6653304832
 H       -14.8073414011        4.5124566667        1.2876301197
 H       -16.4936147154        4.2603031440        1.2987168814
 H       -15.8566248441        5.8326721258        0.7700181107
 H       -17.0952183601        4.5304144586       -2.4307757822
 H       -17.1447971686        6.0001652609       -1.5080554113
 H       -17.8476519492        4.6195488649       -0.8572829713
 Na      -11.3686693047        4.8307263070       -1.5911092704
