117

 C       -15.4663532316        5.7703732574       -2.5934178167
 C       -14.7195308405        5.0707315384       -1.3825625585
 O       -13.5495212422        5.2956506994       -0.9572502193
 C       -15.7459566599        4.2100884912       -0.4423701969
 C       -15.2148596491        2.7278016366       -0.6223168420
 O       -15.7745146242        2.0689754315       -1.4276828172
 C       -14.1006066934        2.1507234433        0.2587070539
 C       -13.2682357787        1.1242134629       -0.5178312633
 C       -12.3365639546        1.7548275866       -1.5696875417
 O       -12.6746894322        2.6885013434       -2.2603814423
 C       -10.8121385059        1.2532477625       -1.5798788605
 C       -10.1220391263        2.1517856243       -0.4920502452
 O       -10.4276465110        3.3318597926       -0.4739418201
 C        -8.9269121053        1.6537804485        0.3948665264
 C        -9.2385666069        0.6492554932        1.4377059117
 C        -8.3384621294       -0.6952631879        1.2648475246
 O        -7.9147574580       -1.0442343581        0.2196634855
 C        -7.9444892369       -1.5444682685        2.5362206214
 C        -7.9143324960       -0.7816551795        3.8535301091
 O        -8.9322766274       -0.5144002499        4.4212209881
 C        -6.5650650119       -0.3643950890        4.5676471233
 C        -7.0489308200        0.8807305392        5.4538195262
 C        -7.1206789514        2.1556548205        4.5776405232
 O        -7.5866950963        1.9570455112        3.4743311339
 C        -6.6410598819        3.4694070793        5.0723944485
 C        -7.2382347643        4.5809978608        4.2274315993
 O        -8.2579496855        5.1409091309        4.6007560121
 C        -6.4833495224        5.1437288656        3.0239840424
 C        -7.2894901083        6.3141218972        2.3256883454
 C        -7.8636537752        5.9993542138        0.9655474282
 O        -7.8586401387        4.8819158213        0.4359982480
 C        -8.3475556267        7.2526036359        0.1534570965
 C        -9.0181323697        6.7851926220       -1.1505022005
 O       -10.2205888390        6.6534237930       -1.1985023115
 C        -8.0342798273        6.6342466001       -2.4113729448
 C        -8.7387674296        6.7914468314       -3.7461035888
 C        -9.3454767524        5.4284841434       -4.1421355869
 O        -9.0301843602        4.3600291367       -3.6425598891
 C       -10.3677210365        5.4278721922       -5.4093139626
 C       -11.5702516024        6.2383338769       -4.9850589919
 O       -12.2497127597        5.9242052750       -3.9866925321
 C       -11.9744183651        7.5577889756       -5.6968875497
 C        -9.5744301622        6.1044900364       -6.5322230079
 C       -10.8146117263        3.9581373531       -5.7724782801
 C        -9.3200972031        8.1717584931        0.9378213313
 C        -6.9458357574        8.0051657665       -0.0688795951
 C        -7.1425221208        3.6285124355        6.5462781007
 C        -5.0662075386        3.4750575904        4.9535883342
 C        -9.0467073223       -2.6872887908        2.4797413598
 C        -6.4887146087       -2.2329159084        2.2545027480
 C       -10.5642954158       -0.2010830806       -1.4587814998
 C       -10.1364841122        1.7256606936       -2.8639732784
 C       -15.6528266804        4.5977591894        1.0720213818
 C       -17.2893446374        4.3135849491       -0.9484077666
 H       -15.9354180676        5.0757506883       -3.2514906151
 H       -14.7922186558        6.4634363606       -3.0977269998
 H       -16.3128777749        6.3824509217       -2.1836888799
 H       -14.6316249874        1.5820151808        0.9994250508
 H       -13.6100341068        2.9880160743        0.6722407402
 H       -13.9817187532        0.4361826070       -1.0006895700
 H       -12.6598741930        0.4389372516        0.1629677517
 H        -8.5595038532        2.6280615362        0.7549183154
 H        -8.2064914264        1.1651900232       -0.2796827021
 H       -10.2795380944        0.2132316414        1.4273005679
 H        -9.0923163185        1.0796934282        2.4244877559
 H        -5.8483644403        0.0220595408        3.8294165309
 H        -6.2487467699       -1.2560557215        5.1467323690
 H        -6.3794982603        1.0634606534        6.2711503671
 H        -8.1309902020        0.5891574642        5.6928558560
 H        -6.4826509120        4.3361708007        2.2714556829
 H        -5.5516132963        5.4665023818        3.3204530585
 H        -6.8114139540        7.2740512925        2.3033432133
 H        -8.2044780813        6.5514903395        3.0092372512
 H        -7.4571483968        5.7686057482       -2.4987050700
 H        -7.2866139435        7.4512539591       -2.3338471565
 H        -8.0544254467        7.1499805670       -4.4849169436
 H        -9.5703430818        7.5041948902       -3.6850593783
 H       -12.6756013378        8.1810818542       -5.0778990288
 H       -12.3240794754        7.3815411760       -6.7380047934
 H       -11.0086039559        8.1994454592       -5.7032210623
 H        -8.9514261902        5.3795969633       -7.0490184248
 H        -9.0745557068        6.9545904588       -6.1386763215
 H       -10.2873239274        6.5215568552       -7.2500795814
 H        -9.9507013782        3.3440604132       -5.5747725685
 H       -11.1158947261        3.8870935910       -6.7914734779
 H       -11.6463611982        3.6594705082       -5.1810413313
 H       -10.2065614549        7.5253978329        1.3035057871
 H        -9.8559147025        8.9710794956        0.3633542933
 H        -8.8476599939        8.5786924672        1.8524883412
 H        -7.0527712914        8.8692631876       -0.8090958199
 H        -5.9968645237        7.4901642452       -0.2316650467
 H        -6.7374197003        8.5732204266        0.8365734482
 H        -8.0568937577        3.0696273318        6.6684424760
 H        -7.1742310824        4.6514490647        6.7429569535
 H        -6.3912525912        3.2655697018        7.2360785911
 H        -4.7516546889        3.4022873147        3.9651303395
 H        -4.6647899787        2.6877227280        5.5403922293
 H        -4.6157039252        4.3475575561        5.4290598893
 H        -8.9028545609       -3.4821588947        3.2511568664
 H        -8.9760120777       -3.2736297952        1.5048839487
 H       -10.0390934071       -2.3014005947        2.6287440502
 H        -6.0700864740       -2.5665328189        3.1498274026
 H        -5.8228324746       -1.4892657136        1.7864466963
 H        -6.6025204565       -3.1227211588        1.6303035136
 H       -10.5419657112       -0.6167807423       -2.4474337374
 H       -11.3706142969       -0.6981115943       -1.0132432489
 H        -9.6607543115       -0.4112348508       -0.9095903842
 H       -10.2410402628        2.8199727204       -2.9659106720
 H       -10.5396803839        1.2763942645       -3.7912194030
 H        -9.0619389372        1.5712642487       -2.8653177737
 H       -14.6210665832        4.6235735480        1.3837124812
 H       -16.1683567088        3.7800775749        1.6766837902
 H       -16.1364413763        5.5642826246        1.1328898047
 H       -17.4961462108        3.9141522111       -1.9293478305
 H       -17.7194207587        5.2515540146       -0.8943866914
 H       -17.9410376193        3.7678680735       -0.2631253902
 Na      -11.3122866421        4.8000592860       -2.1168255145
