117

 C       -14.8827460834        5.0954073344       -2.5847967002
 C       -14.3903786321        4.7285383631       -1.2603455013
 O       -13.2259652447        4.5543834617       -0.9661799419
 C       -15.3996587265        4.2015523312       -0.2231144091
 C       -15.2193396463        2.5988316363       -0.2965374242
 O       -15.9888265059        1.9196849370       -0.9181653306
 C       -14.0891261148        1.9310362328        0.4639778455
 C       -13.3668323807        0.8486775026       -0.3063957540
 C       -12.4018940831        1.3529058662       -1.4279936770
 O       -12.7045324032        2.0413205910       -2.3873524030
 C       -10.8906361135        0.9869326756       -1.3897652990
 C       -10.1269378959        2.1552119292       -0.5310948148
 O       -10.2546655374        3.3194000194       -0.8417751298
 C        -8.9454992985        1.6823465587        0.3978812339
 C        -9.3446616280        0.8317808178        1.6303579038
 C        -8.2955810957       -0.2981990702        1.8985100520
 O        -7.3548869606       -0.3554689290        1.1474556968
 C        -8.4287790466       -1.1633054624        3.1734138595
 C        -7.6921816206       -0.5437076297        4.4749526793
 O        -8.2341079090       -0.4848258769        5.5142374097
 C        -6.2061063018       -0.0027727843        4.2801076946
 C        -5.8647654008        1.2816769069        5.0298382004
 C        -6.6641578599        2.5367768547        4.5139129174
 O        -7.6337628846        2.3216003458        3.7974364546
 C        -6.1594251992        3.9059934300        4.9699722397
 C        -6.8710893475        5.1618502047        4.1660595395
 O        -7.2839723404        6.0925570478        4.7803064006
 C        -7.0545047202        5.0360318028        2.6478835082
 C        -8.2782446075        5.8301816244        2.1063573001
 C        -8.1318623445        6.0428947375        0.5973075285
 O        -7.2669544112        5.4526396826        0.0074125151
 C        -9.0252078459        7.2076108571       -0.1939484478
 C        -9.3705913467        6.6265304192       -1.5310698259
 O       -10.5607233670        6.3201988201       -1.6945112618
 C        -8.3132235707        6.0848480222       -2.4630882888
 C        -8.6711342820        6.3297467933       -3.9284716970
 C        -9.6244877363        5.2756299381       -4.4825587608
 O        -9.8262128953        4.2325263506       -3.8724623746
 C       -10.3271646281        5.4499779032       -5.7547669714
 C       -11.7453426705        6.1287125518       -5.4774745327
 O       -12.2942017601        5.8349909789       -4.4395828232
 C       -12.4141952228        6.9728310638       -6.5106051974
 C        -9.4955763241        6.2582444938       -6.7929075954
 C       -10.5043085284        4.0358152548       -6.3620096467
 C       -10.2506569647        7.5951575083        0.6137888336
 C        -8.0763834553        8.4581715511       -0.3236581130
 C        -6.4579262113        4.1560767062        6.4963009151
 C        -4.5530225145        3.9913444628        4.7304665202
 C        -9.9094700022       -1.3766578623        3.5569676610
 C        -7.6667275616       -2.5634603053        2.9397105371
 C       -10.5722996306       -0.4605349830       -1.0369610097
 C       -10.1687987879        1.1588096448       -2.7953935423
 C       -14.8537143779        4.7212107198        1.1645620364
 C       -16.8491939596        4.6170201210       -0.4343236448
 H       -15.1814326144        4.1026261916       -3.0194853456
 H       -14.1308568108        5.4713281732       -3.2237119397
 H       -15.6750464702        5.8182597676       -2.5608654200
 H       -14.4980105690        1.5952794207        1.4684909617
 H       -13.3222024071        2.7115327147        0.7761814836
 H       -14.0824568048        0.2703319867       -0.8784637242
 H       -12.8531865076        0.1934301012        0.3801211838
 H        -8.3910668543        2.5881951853        0.6086423510
 H        -8.3529967939        0.9540414140       -0.2473292059
 H       -10.2739442463        0.3344418640        1.2831588822
 H        -9.5508934095        1.3669511599        2.5301964857
 H        -5.9230206546        0.1427737196        3.2117560992
 H        -5.5875199802       -0.8254804422        4.5112996033
 H        -4.8273982610        1.4339239034        5.0132994594
 H        -6.0286280980        1.1176821597        6.1066140282
 H        -7.0743955501        3.9358468746        2.3594334542
 H        -6.1630289001        5.4055422879        2.0843395375
 H        -8.2824563520        6.7675762131        2.6946081979
 H        -9.2546253288        5.3117229691        2.2338471790
 H        -8.0462714850        5.0475111157       -2.1422398086
 H        -7.4030046957        6.6861358521       -2.3162627387
 H        -7.7530599110        6.2324966870       -4.5377382744
 H        -9.0431756913        7.3785137513       -4.0936271563
 H       -13.1199982302        7.6487351181       -6.0452451694
 H       -12.9874636902        6.3332217356       -7.2165455706
 H       -11.6622379850        7.5308878381       -7.0007814069
 H        -8.5855587744        5.6740153656       -6.9989594704
 H        -9.2242251546        7.2194689095       -6.4160191804
 H        -9.9722034843        6.3530940328       -7.7762412441
 H        -9.4785606416        3.6897673153       -6.5617580834
 H       -11.1485229719        3.8842543358       -7.2291834103
 H       -10.7613820587        3.2664520951       -5.5963691312
 H       -11.0033176994        6.8656495421        0.7785038722
 H       -10.6967697763        8.4894911399        0.1291970016
 H        -9.9128491773        7.9653569452        1.6027716820
 H        -8.3614506054        9.2795787848       -1.0187865189
 H        -7.1277173587        8.0190545768       -0.6922106630
 H        -7.9204089920        8.8987283450        0.6528691439
 H        -7.5258271038        4.2418328616        6.7022687994
 H        -5.9906809323        5.1697089897        6.7284335551
 H        -5.9813599120        3.4554891578        7.1260644384
 H        -4.2957790178        3.7572626771        3.6340281828
 H        -4.0168541901        3.2506366806        5.3607431168
 H        -4.2032750590        5.0075395867        4.9692186094
 H       -10.0666597378       -2.3899202238        3.9949494487
 H       -10.4870341631       -1.3575606148        2.6118597752
 H       -10.3155976863       -0.6220614519        4.2617610582
 H        -7.7688837757       -3.1907303950        3.8486537023
 H        -6.6356185818       -2.2543941724        2.7697418628
 H        -8.0146481816       -3.0479121242        2.0807454047
 H       -11.1319254077       -1.1685808943       -1.7047160594
 H       -10.9610861277       -0.8381927937       -0.0425616727
 H        -9.5430801603       -0.7953947146       -1.1891257451
 H       -10.3901645145        2.1202946806       -3.2123378709
 H       -10.4915075371        0.4633334018       -3.6075495358
 H        -9.1090044178        1.0780270363       -2.7539883931
 H       -13.7315629353        4.6335596708        1.1201758414
 H       -15.3085157094        4.1689574631        1.9476309268
 H       -15.2118700978        5.7933203374        1.2545040842
 H       -17.2049320312        4.1132589687       -1.3343407255
 H       -16.9020085331        5.7380721852       -0.5275710412
 H       -17.3873910619        4.3414744926        0.4690078424
 Na      -11.5738460724        4.4701837423       -2.5280951939
