117

 C       -14.5355380124        7.3748873181       -1.5104470170
 C       -13.7062858395        7.1569269512       -0.2409961046
 O       -14.3049207244        6.7654796659        0.7356903652
 C       -12.2026409383        7.6799376881        0.0365812212
 C       -12.1334244672        7.7578837195        1.5538348190
 O       -11.9307874354        6.7873785849        2.2820823866
 C       -12.5230947040        9.0693944034        2.2622476694
 C       -12.9442537780        8.9247711014        3.6863126043
 C       -13.9124784363        7.8381570747        3.9651689285
 O       -14.9254426853        7.7369202895        3.3203638840
 C       -13.9245653379        7.1163174508        5.3675302274
 C       -13.8888353436        5.5656895109        5.0923352602
 O       -12.9029598569        4.8916933928        5.2319192315
 C       -15.1300697785        4.9179708187        4.4342547256
 C       -15.1245866424        3.2953543379        4.4699969058
 C       -14.4938043709        2.6833178813        3.1667439951
 O       -14.2877511228        3.4382934026        2.2398260791
 C       -13.9537413018        1.2825097530        3.1418684192
 C       -12.3682523350        1.7424299589        3.4525955304
 O       -12.0880180089        2.4176995515        4.4362753149
 C       -11.2743085283        1.3396662471        2.4408628103
 C        -9.7660496332        1.8830221041        2.6938218510
 C        -9.4677655790        3.2190758407        1.7847083323
 O       -10.3438476513        4.1489815595        1.6337873868
 C        -8.0686607852        3.3013802314        1.0298102790
 C        -8.4412375318        2.3905938354       -0.1405469012
 O        -8.6135882745        1.2127317612        0.0238805880
 C        -8.5141417822        2.9735580627       -1.5771677497
 C        -7.4140849952        2.3113376185       -2.3175163572
 C        -7.5842268545        2.7742579615       -3.8692284153
 O        -8.6968329558        2.6186610827       -4.3509700185
 C        -6.5041359859        3.6005031047       -4.6007910575
 C        -5.1962319046        2.4235378712       -4.8567299482
 O        -4.2866537443        2.4908900064       -4.0238917633
 C        -5.3818270954        1.1339313127       -5.6671496476
 C        -4.0746873038        0.3865098328       -5.8109323272
 C        -4.2913156484       -1.1202180697       -5.8891276353
 O        -5.4088756665       -1.5884435766       -5.7088131122
 C        -2.9551724546       -1.9345230793       -6.4699437276
 C        -2.9952949730       -2.0032177748       -8.0995438787
 O        -2.0020020039       -1.7503257883       -8.7356579401
 C        -4.3697234749       -2.3696281280       -8.5229633645
 C        -1.6723759295       -1.2085012407       -6.0453693258
 C        -2.9181705432       -3.4442459485       -5.7486369404
 C        -6.9088468472        4.1074024309       -5.9495267543
 C        -5.9654711804        4.7278261950       -3.7086611883
 C        -7.7854247104        4.7932409916        0.6400708637
 C        -6.8796081569        2.4910948495        1.7823567612
 C       -14.5981122031        0.3142233697        4.0586938241
 C       -14.1586761057        0.7359115817        1.7141815159
 C       -12.8231262510        7.4558050592        6.2276818852
 C       -15.2038501640        7.2793286431        6.1641071493
 C       -11.1709329509        6.7329433605       -0.5930789202
 C       -11.9681207260        9.1047339668       -0.7968509236
 H       -15.5488547389        7.2366893858       -1.2323633751
 H       -14.1529445822        6.7048528855       -2.2986493996
 H       -14.4529566297        8.3947137709       -1.9637097431
 H       -13.2955423077        9.5869307140        1.5936661861
 H       -11.6810147207        9.7328393801        2.1178393383
 H       -13.1717309467        9.8879747839        4.1298607157
 H       -11.9358903974        8.7250542824        4.1878823772
 H       -15.1454506506        5.2137551478        3.3947872153
 H       -16.0580476994        5.3402642433        4.7646126422
 H       -16.1578995176        2.9646548331        4.6000297262
 H       -14.6016718088        2.9251118489        5.3237345760
 H       -11.6434012490        1.7186621159        1.4618868221
 H       -11.2930040539        0.3121659741        2.2508686900
 H        -9.1409272886        0.9989939565        2.4230751234
 H        -9.4732744252        2.1527009457        3.6707857603
 H        -8.3673462548        4.0261282864       -1.5214021757
 H        -9.5234121610        2.9349390305       -2.0623156267
 H        -7.4483452254        1.1716544661       -2.3610507635
 H        -6.4010271528        2.7342757858       -1.9537256590
 H        -5.9578562605        1.3437362905       -6.6388663544
 H        -6.0489300898        0.4289219188       -5.0980639229
 H        -3.4835211948        0.6548631696       -4.9306465550
 H        -3.6041402374        0.8808014596       -6.6774847360
 H        -4.4647707542       -2.4060394766       -9.6015435254
 H        -5.2267679072       -1.8295515428       -8.1758488186
 H        -4.5018863962       -3.3259253464       -8.1176896419
 H        -1.4809764263       -1.4149435164       -5.0014746902
 H        -1.5414950874       -0.1170572133       -6.3129579900
 H        -0.9075315483       -1.8517496191       -6.5935212553
 H        -2.2042107625       -3.9719441086       -6.3011915197
 H        -3.9890802342       -3.7288038531       -5.8654127337
 H        -2.6089761156       -3.2604030327       -4.6783821764
 H        -7.7961737096        4.7439160069       -5.8288667788
 H        -7.2604015703        3.2529547047       -6.5451335358
 H        -6.1929858536        4.5678349768       -6.5619729452
 H        -4.9781908822        5.0822938083       -3.9404137169
 H        -6.1239489946        4.6597430598       -2.5880504540
 H        -6.5631204702        5.6234564355       -3.9504585174
 H        -7.8061226987        5.0001443145       -0.4210433558
 H        -6.8152644133        5.0784248377        1.0525441804
 H        -8.5037321343        5.4388272694        1.3080684176
 H        -6.9511547637        1.4441433524        1.6453543767
 H        -6.6433839550        2.6562847569        2.7741469698
 H        -5.9143533020        2.7867240506        1.3421473222
 H       -15.5243329597        0.0395490075        3.5356089021
 H       -14.8327219837        0.6776717238        5.0257231016
 H       -13.8692635877       -0.4860255738        4.2777429478
 H       -14.0404993513       -0.3704227192        1.7248228738
 H       -13.3721867932        1.0331323014        1.0394782809
 H       -15.1553273798        1.0350943103        1.4358342557
 H       -12.9469540664        6.8773469398        7.1391624557
 H       -12.7143887290        8.5590274194        6.4531940758
 H       -11.8740672151        7.2242534822        5.7020735646
 H       -15.3981094972        8.2293762382        6.6057206480
 H       -15.5451082609        6.4630890648        6.8936071706
 H       -16.1076050866        7.2302746296        5.4923446246
 H       -11.5890776414        5.8431292729       -1.0467545513
 H       -10.4779585579        6.2230892340        0.1279504905
 H       -10.5343631530        7.3507236592       -1.2473206727
 H       -10.9142646896        9.3076984834       -1.0254548698
 H       -12.5094276022        9.8580162688       -0.2502917374
 H       -12.3767381332        8.8875158775       -1.7547159605
 Na      -12.4548045033        4.6884660352        2.7630001792
