117

 C       -15.3199411976        4.2280895244       -2.5724416933
 C       -14.4976580633        4.2905891111       -1.2739395297
 O       -13.3536451689        4.6035896651       -1.1873754683
 C       -15.1991879481        3.7993175206        0.0210678413
 C       -15.2007435804        2.1639818420       -0.0671245531
 O       -15.9629599803        1.6281808992       -0.8616652998
 C       -14.1615226781        1.2955851842        0.8331295034
 C       -13.2392585713        0.4150724171       -0.0603915402
 C       -12.6551500452        1.0752261814       -1.2601096976
 O       -13.1836257725        2.0522300570       -1.8043582491
 C       -11.2832957886        0.5704937319       -1.7613190518
 C       -10.2954196663        1.3762768100       -0.9417986341
 O       -10.3377597556        2.5751592158       -1.0848588120
 C        -9.2703284732        0.8599062971       -0.0077504744
 C        -9.6169218366        0.9688633783        1.5392101643
 C        -8.4602119076        0.3302909820        2.2727779785
 O        -7.5068318830       -0.1792299467        1.7042005020
 C        -8.7754423843        0.0692532900        3.8421491356
 C        -7.7174067891        0.4729010484        4.8658441002
 O        -8.1072661988        0.9150654828        5.9731008704
 C        -6.2548779834        0.2105141610        4.5812687875
 C        -5.4716092905        1.4804920781        4.9577607083
 C        -6.0394540340        2.6334754729        4.1287808328
 O        -6.8064753661        2.4543542418        3.1983777877
 C        -5.7630899258        4.1420560377        4.5424528965
 C        -6.7569003384        5.1188685029        3.8017083819
 O        -7.6070833390        5.6912513455        4.3882895814
 C        -6.4897147073        5.3732654479        2.3134288277
 C        -7.7553820052        5.9545799092        1.6504474974
 C        -7.5908366650        6.9477614962        0.4396314983
 O        -6.5155484341        7.0231093992       -0.1381868883
 C        -8.8673481572        7.3889594677       -0.2417642420
 C        -9.1825262502        6.4351911927       -1.4686269054
 O       -10.2379899820        5.9261816228       -1.6851417438
 C        -8.0782301025        6.2220920822       -2.5270461797
 C        -8.6283058620        6.3758965973       -3.8953284387
 C        -9.5416767895        5.2141557402       -4.3733749185
 O        -9.5020325494        4.1251195853       -3.7847733086
 C       -10.3532220715        5.3389228058       -5.7718645792
 C       -11.8131009563        5.2742013526       -5.5527150641
 O       -12.3360179317        4.9649543119       -4.5252752526
 C       -12.7249283477        5.5873213266       -6.8009921471
 C        -9.9989746633        6.6212479281       -6.5423449931
 C        -9.8495380147        4.0531439974       -6.5052501892
 C       -10.1363247788        7.3524944918        0.7041544500
 C        -8.5914713301        8.8574813340       -0.6687527478
 C        -5.7530298375        4.4541659311        5.9773726309
 C        -4.2529803349        4.3503988714        4.0862031725
 C       -10.1930464633        0.8180197721        4.2876790304
 C        -9.0708474280       -1.4752831368        4.1510856704
 C       -11.2755081219       -0.9702330385       -1.4271750976
 C       -11.0296513193        0.9211824031       -3.2679669602
 C       -14.4973025572        4.3268261851        1.2633456426
 C       -16.7293919775        4.1428423342        0.0354940418
 H       -15.6284940139        3.2057975481       -2.7289880822
 H       -14.5202882076        4.5464174440       -3.3630653298
 H       -16.2736355742        4.8219304618       -2.5540067177
 H       -14.7960244591        0.6632864361        1.3892765544
 H       -13.5422229590        1.8533103057        1.5256258151
 H       -13.9067778629       -0.4102726236       -0.4455161005
 H       -12.4983871448       -0.0844671562        0.5550008457
 H        -8.3332529817        1.3987617822       -0.1427359563
 H        -9.0723432574       -0.2313601870       -0.1646551139
 H       -10.5761497087        0.5305133847        1.8963235415
 H        -9.7111775192        2.0392429088        1.7677605156
 H        -6.1224499400       -0.0199734871        3.4659455387
 H        -5.9258354308       -0.5770414206        5.2501195542
 H        -4.4079165730        1.2756818998        4.8244086189
 H        -5.7179549222        1.6804978599        6.0343900373
 H        -6.2075028917        4.4705136369        1.9159017436
 H        -5.6909853773        6.1318043487        2.2810587709
 H        -8.2150880048        6.4370980287        2.4999802556
 H        -8.3991795610        5.1515598282        1.4636820815
 H        -7.7628035725        5.1853744003       -2.2850767937
 H        -7.2434188668        6.8580154121       -2.4513702138
 H        -7.8005009951        6.4031552196       -4.6168071672
 H        -9.2407287808        7.2772049632       -4.0475415958
 H       -13.5542736269        6.1637810529       -6.4557162107
 H       -13.0273441425        4.7024358458       -7.2448060393
 H       -12.2049292261        6.1002928993       -7.6300217714
 H        -9.0050632903        6.9737701835       -6.3272462776
 H       -10.6238140500        7.4711106779       -6.1609725470
 H       -10.0421424845        6.5342273186       -7.6067358933
 H        -8.7888173319        3.8027270138       -6.2582400260
 H        -9.8816110304        4.1242299680       -7.6459944189
 H       -10.4126084215        3.1419957863       -6.2207490061
 H       -10.2101168729        6.2959940253        0.8735983465
 H       -10.9653948652        7.7007473272        0.1759392489
 H       -10.0671212917        7.8444304510        1.6287653028
 H        -9.4303008399        9.3245158429       -1.0485074008
 H        -7.7560531565        8.8873868682       -1.3499381700
 H        -8.4283684658        9.2939091376        0.3316964354
 H        -4.8960950994        4.1005165573        6.5696998210
 H        -6.5603629691        3.9125264571        6.4351726939
 H        -5.7291769182        5.5749568259        6.1484209389
 H        -4.0803021933        4.3552795017        3.0151430154
 H        -3.6879294189        3.4366026623        4.4311190377
 H        -3.9649557910        5.3862722541        4.3903373687
 H       -10.1840114021        0.6748079715        5.3507144519
 H       -11.0983123054        0.5554524982        3.8389237181
 H       -10.1580560887        1.9365197461        4.1767927021
 H        -9.5729203833       -1.4882412777        5.1431582754
 H        -8.1816618017       -2.0794635589        4.1867762787
 H        -9.7304421072       -1.9181544032        3.3548843834
 H       -11.9858455629       -1.4504966089       -2.1258601477
 H       -11.5903917158       -1.0658475241       -0.3794727430
 H       -10.2431407488       -1.4739687760       -1.5411023600
 H       -11.0009710344        2.0087157690       -3.4920772876
 H       -11.7851271051        0.4848802312       -3.8826856149
 H       -10.0748155010        0.4629569172       -3.5960566369
 H       -13.4860177816        3.9691850417        1.2523963712
 H       -15.0331675482        4.0692133441        2.1914080205
 H       -14.4764701284        5.3856819632        1.3559067660
 H       -17.1461687531        3.4753243766       -0.7560052063
 H       -16.8989160267        5.2359746290       -0.1791250857
 H       -17.1011382637        3.9167833611        1.0532335604
 Na      -11.5923808771        4.0141129713       -2.3760283376
