117

 C       -15.0118678337        4.1303661813       -2.6725059159
 C       -14.4492754372        4.2163342462       -1.2588982554
 O       -13.3214059865        4.7414186702       -1.1011483969
 C       -15.1634413651        3.6705278979       -0.0200059581
 C       -15.2418519615        2.0253161251       -0.0369693331
 O       -15.8736795172        1.5206164382       -0.9254325765
 C       -14.1793602442        1.3440890664        0.8820560943
 C       -13.3513841568        0.3716914506        0.0652966038
 C       -12.6845989993        0.9490257824       -1.2659907098
 O       -13.2110597112        1.8809358612       -1.8083434631
 C       -11.2866717235        0.3849203735       -1.7439371151
 C       -10.2646446722        1.3466130041       -0.9994521824
 O       -10.3413865205        2.5795676969       -1.0441888194
 C        -9.2666804243        0.7154355791       -0.0416599395
 C        -9.6645177712        0.9614203188        1.3953759344
 C        -8.6893686712        0.2386374715        2.4183178504
 O        -7.6508449043       -0.2375628168        1.9862287129
 C        -9.1072010195        0.1737236508        3.9557060546
 C        -7.7547320104        0.6220729531        4.8825995249
 O        -8.0450383516        1.2175249590        5.8810748813
 C        -6.2534173524        0.2510354604        4.6324803433
 C        -5.4877520161        1.6151499832        4.9491111003
 C        -5.9393404698        2.7519400708        3.9758411613
 O        -6.5486840593        2.5329288681        2.9631052484
 C        -5.5682551725        4.1857861757        4.3757339935
 C        -6.5972349240        5.1528206004        3.7263503976
 O        -7.5479521550        5.6233831728        4.3710880861
 C        -6.4288664376        5.4627799473        2.2529896290
 C        -7.6814575360        6.3304195539        1.8623982168
 C        -7.5298213118        7.0001188554        0.5593876622
 O        -6.4227740674        7.2460786136        0.0667596653
 C        -8.8607597757        7.4433581675       -0.2531308023
 C        -9.1949968930        6.4631627985       -1.4342287005
 O       -10.3259444981        5.9818750171       -1.4634372587
 C        -8.1600411980        6.1437477190       -2.4867989697
 C        -8.6484705876        6.3686617825       -3.9546236954
 C        -9.5212439185        5.1249906912       -4.4289752721
 O        -9.6181867743        4.1895559923       -3.7212545094
 C       -10.3609115466        5.2601518221       -5.7502417481
 C       -11.9157120430        5.0987653185       -5.4951980783
 O       -12.3928210980        4.8081894243       -4.4072908058
 C       -12.8010650600        5.1331399494       -6.6855673734
 C       -10.0819524742        6.5941165937       -6.4778794678
 C        -9.8983915957        4.0963483931       -6.6757814419
 C       -10.0588730937        7.4838640645        0.6435809762
 C        -8.6417788058        8.9014257904       -0.8575752846
 C        -5.7728416341        4.3462979020        5.8930542733
 C        -4.1488127627        4.4591430539        3.8936497956
 C       -10.2059303393        1.1288382617        4.2997535355
 C        -9.3792565742       -1.3369077229        4.1431112554
 C       -11.1306290419       -1.0862814365       -1.4110956430
 C       -11.1672812422        0.5262385513       -3.2703237080
 C       -14.4187798981        4.2174443418        1.2297062156
 C       -16.6844654485        4.1960210894       -0.0047547101
 H       -15.9930170692        3.6175230421       -2.6244554592
 H       -14.3335982454        3.7121964808       -3.2978288339
 H       -15.2860623485        5.1110580546       -2.9395955112
 H       -14.5421555616        0.9025580315        1.8916585587
 H       -13.4515447212        2.1294163658        1.2274399538
 H       -14.0261293476       -0.4289948122       -0.1780534211
 H       -12.6369096705       -0.1520686456        0.7320229265
 H        -8.3811868377        1.3466984909       -0.2691153846
 H        -9.0554560806       -0.3432334335       -0.1632030354
 H       -10.7166824850        0.6742518693        1.5268768472
 H        -9.6336978920        2.0462578667        1.4387113700
 H        -6.1236324794       -0.0590032677        3.6255168069
 H        -5.8749441260       -0.5111992799        5.3450439403
 H        -4.4037039456        1.4325035208        4.8629958025
 H        -5.7289797657        1.8452828380        5.9707579321
 H        -6.3855176904        4.5033424465        1.5761895379
 H        -5.6131575130        6.1711612043        2.1449604508
 H        -7.8854924960        7.0442620414        2.6898931842
 H        -8.5805735296        5.6227685703        1.8340654249
 H        -7.8346365964        5.1473485995       -2.2775871046
 H        -7.3416386504        6.8464346403       -2.2738541554
 H        -7.8085629142        6.4166487426       -4.6397724104
 H        -9.2694101341        7.2291775805       -4.1194444522
 H       -13.6986107189        5.7461678207       -6.4348729922
 H       -13.0869111529        4.0490844402       -6.9471435546
 H       -12.2620306345        5.4263739446       -7.5781468107
 H        -8.9970296151        6.8441963405       -6.4749585046
 H       -10.6302125291        7.4627660211       -6.1942703304
 H       -10.2306226216        6.3802988973       -7.5623216152
 H        -9.0271986284        4.4004374496       -7.1808766888
 H       -10.6193121232        3.9130539563       -7.4398504067
 H        -9.6112658990        3.1931317079       -6.2075258924
 H       -10.3194184329        6.4878880922        1.0047311417
 H       -10.9347590664        8.0422485343        0.1172796847
 H        -9.7345598597        8.0776309710        1.5226924383
 H        -9.5521385252        9.2422378900       -1.3969775249
 H        -7.8575395565        8.7011009649       -1.5629683643
 H        -8.4951818577        9.5910095712       -0.0736546500
 H        -4.9079987960        4.1757608451        6.5184761076
 H        -6.4925768956        3.6104003255        6.2979310640
 H        -5.9977302689        5.3452535393        6.0773747516
 H        -3.9967448154        4.1095212730        2.8855408288
 H        -3.5012040745        3.9153907607        4.5186123874
 H        -3.9463954195        5.4851865856        3.8946248669
 H       -10.3424158957        1.1951923000        5.3641732644
 H       -11.1520462186        0.7762746268        3.8411072137
 H       -10.0207439554        2.0983571501        3.9270822845
 H        -9.6616669016       -1.5017054155        5.1958185352
 H        -8.4450736026       -1.8998113602        3.8856888888
 H       -10.1665385845       -1.7239213772        3.5157218855
 H       -12.0716187969       -1.4867924266       -1.6850492116
 H       -10.8966703831       -1.2685722467       -0.3950058160
 H       -10.3971877860       -1.4726971046       -2.0075829414
 H       -11.4163485685        1.5370274896       -3.5783865079
 H       -11.9395948719       -0.1215112526       -3.7619326772
 H       -10.2217309109        0.1848342496       -3.6383252195
 H       -13.3268856843        4.1566995935        1.0911926070
 H       -14.7200657026        3.8062104475        2.1435400753
 H       -14.5707779045        5.2839931470        1.4789525893
 H       -17.1435666478        3.8795120235       -0.9048533410
 H       -16.6686094403        5.2629041974        0.0507675070
 H       -17.1543477987        3.8141151234        0.8777167236
 Na      -11.5394802523        4.0912600215       -2.4151251338
