117

 C       -14.2580374523        7.7222336942       -1.6992528354
 C       -13.7494591411        7.3755652889       -0.2663087645
 O       -14.4199026972        6.7821705288        0.5754634622
 C       -12.1627585047        7.7587449103       -0.0210460165
 C       -12.1883287796        7.8159157307        1.5337319323
 O       -12.0939385450        6.7671063971        2.1544067732
 C       -12.5955148392        9.2045365658        2.1870861345
 C       -12.8902394920        9.0453620520        3.6994310683
 C       -13.8487373587        7.9760116355        3.9835182494
 O       -14.6565014877        7.6772665642        3.1632463417
 C       -13.9988203539        7.2841379592        5.3631271959
 C       -13.9954294597        5.7999340364        5.0950411622
 O       -13.0093480371        5.0774239346        5.3128629512
 C       -15.1834853738        5.0115869007        4.4996778935
 C       -15.0087225224        3.3762551776        4.4704703065
 C       -14.5109766949        2.7624225386        3.2315875471
 O       -14.4902228303        3.4098183326        2.1752146450
 C       -13.8277995791        1.2791109345        3.1575925201
 C       -12.3044509049        1.5225685604        3.3226202687
 O       -11.8470393540        2.1709610586        4.2170962257
 C       -11.1881108226        1.1491230045        2.2353496792
 C        -9.8639109946        1.9165107959        2.5869389865
 C        -9.6638700932        3.2468464626        1.8346299825
 O       -10.2774329306        4.2634855687        1.9150948442
 C        -8.1603886932        3.3169094884        1.0649630062
 C        -8.5305488689        2.4322485533       -0.2967504490
 O        -8.7697736002        1.2567687612       -0.0163117565
 C        -8.7142031587        2.9008109575       -1.7493352867
 C        -7.5743974618        2.2643555455       -2.6067841265
 C        -7.7410987969        2.8188487603       -4.0544488693
 O        -8.7914292490        2.8899982747       -4.5954778052
 C        -6.4442163755        3.4226313245       -4.7173778077
 C        -5.1967282561        2.4728124070       -4.9858443676
 O        -4.1979818303        2.6845445355       -4.3424350353
 C        -5.2789942145        1.3154842349       -6.0293253071
 C        -3.9483903972        0.2945343230       -5.9225275505
 C        -4.1557267706       -1.2151961666       -5.8330757261
 O        -5.2676143626       -1.6858673806       -5.6601990253
 C        -2.9745735724       -2.1926789393       -6.0489216485
 C        -3.1202096332       -2.1498466860       -7.6765904542
 O        -2.1549929716       -1.9921467204       -8.3646804929
 C        -4.4698675505       -2.5736536446       -8.3324885420
 C        -1.4691544899       -1.6753086381       -5.6249828761
 C        -3.3119242961       -3.6755810747       -5.6551049495
 C        -6.8063762564        3.9997470448       -6.0703598342
 C        -5.8740699958        4.4817320881       -3.7339945655
 C        -7.7587718013        4.9143809684        0.8771660922
 C        -6.9949845431        2.6908307262        1.8747378606
 C       -14.1701292460        0.5450203570        4.4926678978
 C       -14.2791188834        0.5475005100        1.8432601974
 C       -12.7314909562        7.5231748974        6.2539041065
 C       -15.2106078593        7.8499055074        6.1159559805
 C       -11.3450111839        6.5366711936       -0.5649753758
 C       -11.8498685951        9.1068946503       -0.6584036320
 H       -15.2470180398        7.2655961663       -1.9254532435
 H       -13.4249316731        7.6048186268       -2.4264693854
 H       -14.5323766940        8.7902209640       -1.7117725188
 H       -13.3668392056        9.6383057111        1.6027499187
 H       -11.7568322167        9.9613278064        2.0065889626
 H       -13.3812592999        9.9559353588        4.0418037160
 H       -11.9727450757        9.0348283275        4.2122896859
 H       -15.3827081742        5.5082809050        3.5267095223
 H       -16.1393318155        5.1556663770        5.0507820539
 H       -15.9463668665        2.8886057561        4.8037135576
 H       -14.2534262727        3.1472448643        5.2885832171
 H       -11.5647103716        1.5272475564        1.2707059287
 H       -11.0476177309        0.0216362089        1.9543973739
 H        -9.0661935893        1.2061691301        2.3707727671
 H        -9.5998152965        2.3225061359        3.6023501953
 H        -8.8061550365        4.0305874011       -1.6547219390
 H        -9.7029188990        2.6539771614       -1.9787423151
 H        -7.5362672182        1.2362787182       -2.5881924386
 H        -6.6867044985        2.6905751011       -2.2254888365
 H        -5.4773070453        1.6342685874       -7.0327913425
 H        -6.0710192949        0.6052136900       -5.8003623752
 H        -3.4632427095        0.5585715213       -4.9582324859
 H        -3.2667497303        0.6763789741       -6.6613359001
 H        -4.3127596254       -3.3345915507       -9.1054045037
 H        -4.8989911953       -1.6333616708       -8.8296050044
 H        -5.3104137305       -2.7668574539       -7.6618278437
 H        -1.5869571630       -0.7685866415       -4.9806100174
 H        -1.0170728704       -1.3968864618       -6.5549544849
 H        -0.8266259952       -2.3343660425       -5.1277803756
 H        -2.7584824046       -4.2239811127       -6.4345492248
 H        -4.3359700392       -3.8581266510       -5.7308674358
 H        -2.8062875115       -3.7096626145       -4.7532637876
 H        -7.6539007414        4.6843869890       -5.9954825987
 H        -7.1150506557        3.2411413168       -6.8281404881
 H        -5.9410705070        4.7595242634       -6.4286456255
 H        -5.2831768309        5.3563186168       -4.1744724299
 H        -5.1123973831        4.0347740690       -3.1288499701
 H        -6.5814256732        4.9682840790       -3.0787809899
 H        -8.2554356632        5.2135712946       -0.0824190310
 H        -6.6368431049        4.9860813679        0.8113130651
 H        -8.1658091339        5.5251680849        1.6098716088
 H        -7.2731331340        1.7188421616        2.2849867941
 H        -6.5727529163        3.3728934183        2.6805425256
 H        -6.1240448762        2.3949164115        1.3280486014
 H       -14.9798648170       -0.0972239334        4.2411454620
 H       -14.4498710953        1.2490688423        5.3105427407
 H       -13.3584858122        0.0061167136        4.9185001754
 H       -14.7498810099       -0.4211013636        2.1354877541
 H       -13.3711937944        0.2968086422        1.1632535566
 H       -15.1904513184        1.1079654686        1.4981290535
 H       -12.7589441812        6.7320039043        7.0550712096
 H       -12.7550935579        8.4817746345        6.7443951585
 H       -11.8368208300        7.6139230211        5.6481932901
 H       -14.9794458433        8.8370909428        6.5666777869
 H       -15.4704038764        7.0423591259        6.7303819891
 H       -16.1456373857        7.9544706578        5.6888414736
 H       -11.7681093088        6.2139283724       -1.5305684324
 H       -11.5040959267        5.6740344786        0.0580010456
 H       -10.3106412157        6.7441028530       -0.5859070654
 H       -11.2595920445        9.6251567852        0.0814907033
 H       -12.7190271594        9.6863445950       -1.0033536897
 H       -11.0748350832        8.9382728342       -1.4340983095
 Na      -12.3279745911        4.3231778598        2.7958757020
