117

 C       -14.8904769829        3.9544303632       -2.5618213053
 C       -14.3206894705        4.1706761029       -1.2011520445
 O       -13.2672278395        4.8616068925       -1.0378822524
 C       -15.2278693480        3.6834397768        0.0532084508
 C       -15.1909438514        2.1186950177       -0.0758251903
 O       -15.9894355646        1.5734576463       -0.7889612716
 C       -14.2037022223        1.3432098798        0.7078713248
 C       -13.6165294788        0.2199465400       -0.1463079961
 C       -12.6432822527        0.7921612805       -1.1649037100
 O       -12.8875059958        1.9101121879       -1.5958765698
 C       -11.2496777993        0.1985871857       -1.6586438013
 C       -10.1400696280        1.1742933540       -1.0623260461
 O       -10.1700817022        2.3508895964       -1.3059511872
 C        -9.0846660425        0.6356959314       -0.0860050448
 C        -9.7045586180        0.9259053201        1.3543471873
 C        -8.8436257530        0.1947860653        2.4342066792
 O        -7.9650472738       -0.5538290625        2.0514581362
 C        -9.2353205527        0.2994599187        3.9731541343
 C        -7.9023019092        0.8797138869        4.8646079935
 O        -8.1393375661        1.5266442247        5.8195149499
 C        -6.4266757583        0.3964533506        4.6626493842
 C        -5.4145723448        1.5657808464        4.6978364861
 C        -5.6696745896        2.8143318359        3.8025745013
 O        -6.2355574332        2.6983502616        2.7387220367
 C        -5.4005404175        4.2340461623        4.3602537170
 C        -6.5733432088        5.2444666903        3.8006849161
 O        -7.5368815556        5.5410054727        4.5076383994
 C        -6.5056677137        5.6521430277        2.3359871800
 C        -7.6764596080        6.5392170547        1.8409153952
 C        -7.5739695203        7.2649809051        0.4461272167
 O        -6.5126029816        7.3420358060       -0.1449455068
 C        -8.9324857266        7.7042220828       -0.3809611753
 C        -9.2676749115        6.4601635335       -1.3230783009
 O       -10.3621111239        5.9053216680       -1.1724999064
 C        -8.2803036105        6.0347678101       -2.4517411023
 C        -8.8143725449        6.3503093650       -3.8443381439
 C        -9.6347928633        5.0839505844       -4.4591735456
 O        -9.5582090835        4.0158525687       -3.8826636388
 C       -10.4027002991        5.2165681512       -5.7919409528
 C       -11.9248775483        4.7979767529       -5.5368483913
 O       -12.3749336741        4.6171414866       -4.4245461371
 C       -12.8912634556        4.7219706531       -6.7393301320
 C       -10.3798631871        6.6250322226       -6.4780240435
 C        -9.7559565570        4.1187102951       -6.7698453087
 C       -10.0521731718        7.9297176019        0.6179222583
 C        -8.5828557049        8.9837798360       -1.1945638500
 C        -5.4027016532        4.3285389156        5.8775647760
 C        -4.0133435220        4.5826268268        3.8141530104
 C       -10.3392658180        1.3259154566        4.1692079956
 C        -9.5063182827       -1.0836896135        4.6456336485
 C       -11.0063702179       -1.2578619191       -1.2971531302
 C       -11.0118246470        0.3398867792       -3.1602706681
 C       -14.6769097523        4.2943878855        1.3796607844
 C       -16.7182339371        4.1071750831       -0.0992059557
 H       -16.0466722163        3.8360344390       -2.5039550872
 H       -14.3665181363        3.0865698643       -2.9239929265
 H       -14.6765067591        4.8538129975       -3.2030306138
 H       -14.4984482719        1.0171037001        1.6744713795
 H       -13.4311722270        2.0262140762        1.0202656741
 H       -14.4691227180       -0.2072877145       -0.7257256089
 H       -13.2968603083       -0.6436410443        0.4368930763
 H        -8.1287178302        1.2221968354       -0.1527198083
 H        -8.9782458085       -0.4290944458       -0.1735362930
 H       -10.7298912194        0.6524256919        1.3376415205
 H        -9.6063895519        2.0513006225        1.4076050180
 H        -6.2282379519       -0.1611173907        3.7895642681
 H        -6.2531596930       -0.3383361495        5.5255060025
 H        -4.4044136478        1.1308108177        4.3971715822
 H        -5.2620723712        1.9070118499        5.7064868012
 H        -6.4758437670        4.7918208796        1.6838154103
 H        -5.6785605087        6.3064443292        2.2077853240
 H        -7.8420238088        7.2733787763        2.5996981902
 H        -8.5255886758        5.9236599379        1.7893130682
 H        -8.0781485251        5.0060463520       -2.3567901236
 H        -7.3559156216        6.6112230200       -2.2820745466
 H        -7.9778431261        6.5338502593       -4.5407473426
 H        -9.5126324229        7.1930490840       -3.8736202154
 H       -13.6997772896        5.3904230380       -6.5513913162
 H       -13.3027954402        3.7057032062       -6.7793112232
 H       -12.4024278453        4.8405583168       -7.6360640238
 H        -9.4412979757        6.6864099781       -7.0290795646
 H       -10.4730720857        7.4393061725       -5.7803776329
 H       -11.2186797278        6.8080863235       -7.1558571926
 H        -8.6710884917        4.2963477378       -7.0526758009
 H       -10.3802704182        4.0181946067       -7.6546491287
 H        -9.6830897060        3.1096509579       -6.2305603024
 H       -10.3894245123        7.0925285705        1.1242927729
 H       -10.8512476833        8.2616039255       -0.0165007565
 H        -9.7460239300        8.6754668199        1.3218357344
 H        -9.3467743230        9.1115512028       -2.0036505822
 H        -7.5913553171        8.8027524946       -1.5936614567
 H        -8.6676694889        9.7875811750       -0.5238073098
 H        -5.2945010115        3.3572861020        6.4252451601
 H        -6.3472053207        4.7658281258        6.2844923249
 H        -4.6135421523        4.9993235308        6.2349122593
 H        -4.0538069843        4.5693710284        2.6570138322
 H        -3.2708190628        3.8858742444        4.2358778061
 H        -3.6112893479        5.5566137648        4.2216351566
 H       -10.6231753790        1.2597649251        5.2383900706
 H       -11.3201401000        1.1337214764        3.6475091700
 H        -9.9638482910        2.2966668982        4.0134252624
 H        -9.7187945645       -1.0804104132        5.6765940882
 H        -8.6788280978       -1.7477985458        4.3268632413
 H       -10.3836353599       -1.5389005570        4.1604948476
 H       -11.7943159416       -1.8237102539       -1.8899422633
 H       -11.1840091420       -1.4807725825       -0.1953403319
 H        -9.9645062466       -1.4664062836       -1.5684099872
 H       -11.0645278112        1.3789795803       -3.4261969550
 H       -11.7146276361       -0.2085119306       -3.8052300322
 H       -10.0020617320       -0.0779743348       -3.3178794427
 H       -13.6219429881        4.1810392188        1.6008568836
 H       -15.1884440288        3.9251924105        2.2881829539
 H       -14.8038203995        5.3709736952        1.4272461924
 H       -17.2177519846        3.4929944569       -0.8878751839
 H       -16.7560152785        5.1689498415       -0.3297915826
 H       -17.2027714973        3.8725214337        0.8993537621
 Na      -11.4796517479        4.0149998368       -2.1507901517
