117

 C       -14.7773068234        4.5815776268       -2.5326355030
 C       -14.4152179160        4.3678150643       -1.0134628128
 O       -13.2434927993        4.4182634007       -0.6434520175
 C       -15.3672887217        3.6668655532       -0.0391632462
 C       -15.1335534377        2.0893366688       -0.1635635888
 O       -15.8846720124        1.5384753943       -0.9258916232
 C       -14.1257385551        1.3551097328        0.6868603374
 C       -13.3503741186        0.2149016821       -0.0529466452
 C       -12.3619463129        0.8478176201       -1.0019335802
 O       -12.5167233166        1.9963736433       -1.3549221232
 C       -10.9869666285        0.0758859832       -1.4127187727
 C        -9.7647318593        0.9673047039       -0.7125695596
 O        -9.6856253323        2.1647983999       -0.9496565770
 C        -8.8941502104        0.3522805727        0.3707244799
 C        -9.4995888726        0.9112503601        1.6893991652
 C        -9.3239110448       -0.0562364568        2.8349123987
 O        -9.2584372849       -1.2665879668        2.7289922778
 C        -9.3563822567        0.5833236421        4.3298212999
 C        -8.1158074285        1.6379246390        4.3487428338
 O        -8.2820227485        2.8417536022        4.5570932865
 C        -6.8013497401        1.0636014887        3.9472504520
 C        -5.5109179185        1.9016784719        4.2503180790
 C        -5.6086320246        3.2459734402        3.4150663421
 O        -5.9951783409        3.1436088844        2.2916554069
 C        -5.1689410833        4.5795744520        4.0652605766
 C        -6.2971789919        5.6195683294        3.6737624939
 O        -7.2232761126        5.8985019668        4.3929826786
 C        -6.2356159462        6.2053410706        2.1955578442
 C        -7.6076895535        6.9191520435        1.7613419838
 C        -7.6553070251        7.0763796862        0.2501471107
 O        -6.6503819404        7.0357468168       -0.4125603123
 C        -9.0084973045        7.5630261667       -0.5251012097
 C        -9.5128723117        6.2940055073       -1.2466454678
 O       -10.4764068184        5.6382335490       -0.9565680131
 C        -8.5634560398        5.8522254171       -2.3914234717
 C        -9.2015420656        6.1767375898       -3.7606785919
 C        -9.7537068299        4.8504076539       -4.5201056209
 O        -9.5741078571        3.7940161809       -3.9860384052
 C       -10.5681462892        5.0138482232       -5.7768516158
 C       -11.9196589171        4.0999850458       -5.4307110903
 O       -12.1674180009        3.6709745739       -4.3045703436
 C       -12.8836240682        3.9094420637       -6.5703144737
 C       -11.0398030594        6.3971207275       -6.0998062542
 C        -9.8347106865        4.4138350480       -7.0098494914
 C        -9.9791085232        8.0990923690        0.4926050433
 C        -8.6009893109        8.7188895364       -1.5208162146
 C        -5.0709064367        4.5136299932        5.6120690257
 C        -3.7881301039        4.9342265220        3.2884126064
 C       -10.7389736712        1.1906056005        4.5247428131
 C        -9.2105609130       -0.5466090704        5.3174177368
 C       -10.9846928268       -1.3818673349       -0.9802930622
 C       -10.7316257096        0.2727695955       -2.8947876064
 C       -14.9642605536        4.0394250974        1.4450996156
 C       -16.8841996417        3.8662577054       -0.3986516842
 H       -14.5231208817        5.5303252047       -2.9284766844
 H       -15.8360904917        4.3861385640       -2.6268354352
 H       -14.1962452933        3.8345365404       -3.0302765694
 H       -14.8031578024        0.9237278035        1.4188369584
 H       -13.4363517053        2.0228334150        1.1645727892
 H       -14.0991151665       -0.2380491692       -0.7038067705
 H       -12.9026919967       -0.5559366636        0.5849489589
 H        -7.8709835757        0.6868844093        0.3588387170
 H        -8.8233018275       -0.7033846246        0.4353563120
 H       -10.5765044650        1.0493627466        1.5052307153
 H        -9.1812408332        1.9608839087        1.9619808193
 H        -6.7579393130        0.7183431437        2.9596810149
 H        -6.7095440886        0.0722399721        4.5000140399
 H        -4.6214818117        1.2752962872        4.0417583269
 H        -5.4930458900        2.0868433640        5.2912512335
 H        -5.9601010000        5.4204100289        1.4434673284
 H        -5.3856760238        6.8080583864        2.1114816626
 H        -7.7821322486        7.8043732427        2.3934372413
 H        -8.4764971779        6.2368761993        2.0563768591
 H        -8.3949220998        4.7225843692       -2.3546789399
 H        -7.5729787959        6.4215098581       -2.3168998664
 H        -8.5000119322        6.7898187574       -4.3677081897
 H       -10.1106398285        6.7894762758       -3.6630691153
 H       -12.8257216898        4.7937457310       -7.2345772419
 H       -13.8924669090        3.7294205714       -6.1597523547
 H       -12.4100841272        3.0774949765       -7.1598233972
 H       -10.2668168988        7.1823309341       -5.9435263206
 H       -11.8587577783        6.6665750639       -5.4834970672
 H       -11.2731965871        6.3618047122       -7.1768333900
 H        -9.3863475032        5.2129075183       -7.5024606517
 H       -10.6065215852        4.0852482251       -7.7182392261
 H        -9.2248557333        3.6170346929       -6.7914073796
 H       -10.3798135875        7.3499538963        1.1946267391
 H       -10.8834092228        8.5020394341       -0.1291003315
 H        -9.6386985647        9.0172793702        0.9415664353
 H        -9.5398361385        8.9830637804       -2.0767205032
 H        -7.7609444070        8.3783451978       -2.1364679210
 H        -8.3409899771        9.5838110904       -0.9260213416
 H        -4.5901512013        3.6371239348        6.0182004201
 H        -6.1553381049        4.5346901242        5.9417416113
 H        -4.5889918526        5.3459381803        6.0554807235
 H        -3.9099769541        4.7746381936        2.2684485283
 H        -3.0506592862        4.2279747274        3.5618786841
 H        -3.5436652673        5.9316240582        3.4466283062
 H       -10.8654805272        1.3876239065        5.5583714492
 H       -11.5146674788        0.5137339436        4.2000373346
 H       -10.9625110503        2.1110237294        3.9776551625
 H        -9.0234499534       -0.2486885798        6.3780071101
 H        -8.3527364092       -1.2073111145        5.0973152100
 H       -10.0829131779       -1.1442058713        5.2367212839
 H       -11.7389205018       -1.9227829441       -1.4931908495
 H       -11.0964873575       -1.5125761463        0.0875640833
 H       -10.0774973260       -1.8528848916       -1.2195996584
 H       -10.7202334486        1.3407899883       -3.1100749169
 H       -11.5292801353       -0.2990763876       -3.4286427428
 H        -9.7711079464       -0.0879690473       -3.1707424300
 H       -13.8724271863        4.0981840298        1.6405304207
 H       -15.2788708056        3.3697365370        2.1836030816
 H       -15.3733807345        5.0178782263        1.7991470329
 H       -17.1321922545        3.1084219378       -1.0990517989
 H       -17.1597181720        4.8675967272       -0.7446235257
 H       -17.4486066100        3.6905846170        0.4916602136
 Na      -11.1520679693        3.7363335280       -1.9879662053
