117

 C        -8.6401660508       -5.1141594371        3.9047784005
 C        -7.2056151663       -4.9378765417        4.2306968638
 O        -6.3202017271       -5.0366216136        3.3401319694
 C        -6.6450678259       -4.6789990059        5.6633668096
 C        -6.6062198480       -3.1489958479        5.7711695600
 O        -5.7862674011       -2.6455813818        6.5686430106
 C        -7.4539390515       -2.1473436972        4.9377748618
 C        -7.5397854860       -0.8513687330        5.7786058805
 C        -8.0359874525        0.3742672543        4.9900236390
 O        -8.9327728813        0.1355796707        4.1474362934
 C        -7.4081390869        1.8279433201        5.2234915207
 C        -7.2999682460        2.5671760386        3.8705478515
 O        -6.2129481800        2.7755780712        3.3354313655
 C        -8.6840003990        2.9247256359        3.0774090401
 C        -8.2251022706        2.9653202754        1.5705460799
 C        -9.3030806053        3.3268628713        0.5367522474
 O        -9.3293195963        4.3600240411       -0.0872677184
 C       -10.3917502498        2.2274353073        0.0258902012
 C       -11.7500164329        2.9234131884        0.5861196798
 O       -11.6957953425        3.3052110381        1.7376731354
 C       -12.9946768929        2.9376429271       -0.2970770907
 C       -14.0175567671        3.9411788213        0.2412669475
 C       -13.4871460149        5.2196840539       -0.5655367275
 O       -12.3881383453        5.6347912354       -0.2440747750
 C       -14.2676569384        5.8167834922       -1.7926418613
 C       -13.3855985413        5.5802743201       -3.0971748914
 O       -12.1976241635        5.3909093489       -3.0654260076
 C       -14.0323515051        5.6295915474       -4.5204741837
 C       -13.1111077463        6.4160037931       -5.4843881952
 C       -12.7849586350        7.8493409024       -5.0586768492
 O       -13.0676636362        8.2671323485       -3.9655740796
 C       -12.0615685947        8.7494514249       -6.1995785804
 C       -10.5839689020        8.8557056040       -5.7024074533
 O        -9.8445902452        8.0002882546       -6.1632213671
 C       -10.1195373219        9.6415514603       -4.5037999216
 C        -8.7345466507        9.2675488238       -3.9687220322
 C        -8.8245813969        8.2426223519       -2.7568466649
 O        -9.9198344764        8.0213997585       -2.2152079134
 C        -7.5913680678        7.4845755061       -2.2217631180
 C        -7.5831911298        6.0651453474       -3.1245867564
 O        -8.4902677866        5.3058190571       -2.8456435611
 C        -6.4827649401        5.9422938186       -4.1993854809
 C        -6.2241631050        8.0830499363       -2.3852631097
 C        -7.8475538059        7.1232782815       -0.7448858138
 C       -12.2185147228        8.1549741563       -7.5698122852
 C       -12.7834038940       10.2167905872       -6.1820199761
 C       -15.6161063151        5.1144237424       -1.9680564554
 C       -14.4800684363        7.4122001332       -1.5055445226
 C       -10.3538873647        2.0125379141       -1.4895485548
 C       -10.3992164640        0.8599461363        0.8304012010
 C        -8.4647463004        2.6371432297        6.0114956228
 C        -6.0559356386        1.7246800193        5.9798462805
 C        -7.5450489520       -5.2158718814        6.8013479793
 C        -5.1430815187       -5.2597450356        5.7705066592
 H        -8.7492367488       -6.1145127158        3.4646390673
 H        -9.0383353535       -4.3520761017        3.2253705052
 H        -9.2594835880       -5.0997012275        4.7371441138
 H        -8.3639389034       -2.6048747965        4.5527518138
 H        -6.8312283835       -2.0924729212        4.0558712295
 H        -6.5365681711       -0.8074412313        6.0604294889
 H        -8.1817984834       -1.0547142874        6.6294809637
 H        -9.0884949866        3.8574103578        3.4462962454
 H        -9.4810447596        2.1407340856        3.2903220045
 H        -7.8159197689        2.0469913737        1.1443309968
 H        -7.4115988714        3.7310653765        1.5398737189
 H       -13.4241421800        1.9357716986       -0.3766140836
 H       -12.5128634015        3.2856853241       -1.2695161510
 H       -13.8107850482        4.1041662931        1.2590508391
 H       -15.0157773755        3.6535977544       -0.0097106612
 H       -15.0479940994        6.1071851088       -4.4992175474
 H       -14.2092487863        4.5564410582       -4.9238999716
 H       -13.7307100267        6.2781023259       -6.4132714709
 H       -12.1057675622        5.9324078795       -5.6109761634
 H       -10.7827832721        9.6635945203       -3.6719438725
 H        -9.9622569049       10.7223387977       -4.7842587424
 H        -8.2903559875       10.2033279021       -3.7787918134
 H        -8.1976982379        8.7200742847       -4.8034499209
 H        -6.6526661870        6.6256489840       -5.0035318389
 H        -6.4877347267        4.8827424780       -4.6247499930
 H        -5.4543975474        6.0342924196       -3.7495950248
 H        -6.3244958878        9.1492634460       -2.0850306763
 H        -6.0109878205        8.1904918239       -3.4462124855
 H        -5.4057207571        7.6428411631       -1.8135784044
 H        -8.8485117177        6.9393218518       -0.5389066898
 H        -7.5984022018        7.9543936358       -0.0358135559
 H        -7.4836583675        6.1624540998       -0.5586827895
 H       -12.0484497417        7.1170493081       -7.5573635050
 H       -11.4943442077        8.5861231145       -8.2522423613
 H       -13.1675186814        8.3362956754       -8.0072287252
 H       -12.2429770883       10.6421297878       -7.0691208298
 H       -12.8410678005       10.7717470828       -5.3043509898
 H       -13.7362801779       10.0488166815       -6.5299951330
 H       -16.2976966044        5.3303721403       -1.1494614318
 H       -15.4692468126        4.0487337759       -2.0304661989
 H       -16.2213650232        5.4415669445       -2.8436435750
 H       -15.2370208220        7.4151507933       -0.7564079593
 H       -14.8819600815        7.8854845920       -2.3465989426
 H       -13.6899132383        7.9441316230       -1.1502532740
 H       -11.1542339932        1.2980399766       -1.7117057697
 H        -9.3673214520        1.5999203563       -1.9054339232
 H       -10.4964080001        2.9129672735       -2.1219447363
 H       -10.4029805396        1.0430511242        1.9212734806
 H        -9.5274526023        0.2910429467        0.5902003723
 H       -11.3910718327        0.3950114151        0.5588558157
 H        -8.5388169030        2.2782046796        7.0065979028
 H        -9.4665749081        2.5971274347        5.5511057562
 H        -8.2080856571        3.6949605150        6.0256294771
 H        -6.1129935612        1.4723236033        7.0259165119
 H        -5.6769580207        2.7055380310        5.9648644507
 H        -5.3900191478        1.0260339795        5.5352159898
 H        -8.5151874868       -4.7229563903        6.6659130445
 H        -7.0730261019       -5.0316485165        7.8012613709
 H        -7.6705902376       -6.3106073393        6.6719901627
 H        -4.6117933817       -4.8806202234        4.9693018303
 H        -5.0515117603       -6.3098067752        5.5678075160
 H        -4.6390821649       -4.9285302580        6.6573001944
 Na      -10.4289779063        5.9801060410       -1.4761720317
