117

 C       -14.5794354064        4.7347943960       -2.3004429467
 C       -14.2081256142        4.1847715209       -0.9650964464
 O       -13.0450032215        4.1817313077       -0.5570976801
 C       -15.3091423309        3.5033111273       -0.0887792229
 C       -14.9397315499        1.9649421350       -0.2377791538
 O       -15.4926724427        1.2410323875       -1.0135563183
 C       -13.9514738997        1.3097375612        0.7236767595
 C       -13.3356976165        0.0912065832        0.0211256762
 C       -12.3588977794        0.6745843075       -1.0986502603
 O       -12.8297299092        1.6003127205       -1.7761806221
 C       -10.9714787263        0.1281530952       -1.3605079214
 C        -9.9951274834        1.0790784568       -0.4697381503
 O        -9.7352254525        2.1600193383       -0.8930705380
 C        -9.4482959055        0.5641376176        0.8395530585
 C       -10.4058459109        0.9170839661        1.9765883489
 C        -9.9405784963        0.0867613862        3.1571107455
 O       -10.1023242537       -1.1275688564        3.1083417169
 C        -9.2938270527        0.7169484938        4.4535366301
 C        -8.0938624298        1.7129692441        4.1550329357
 O        -8.2384525612        2.9295991517        4.0956912208
 C        -6.6887052471        1.1159089251        4.1299917072
 C        -5.5040116765        2.1346058952        4.3517655980
 C        -5.5493468507        3.3705867988        3.4369991869
 O        -5.7657640822        3.2501121642        2.2636363306
 C        -5.0217303047        4.8928234946        3.9796172748
 C        -6.0461059094        6.0200389071        3.4561053044
 O        -6.4972315880        6.8473460901        4.2232436871
 C        -6.1934361504        6.1058649273        1.9052685889
 C        -7.4627332170        6.8007650677        1.4940855343
 C        -7.5769463105        7.2588690903        0.0398460791
 O        -6.5548229465        7.4465364558       -0.5942418365
 C        -9.0302727643        7.5132368418       -0.6394521495
 C        -9.3658925425        6.3655791550       -1.6079718335
 O       -10.3115303541        5.5979874512       -1.4305970256
 C        -8.3053888551        6.1287929362       -2.6613994097
 C        -8.8577341891        5.8852088208       -4.1373063607
 C        -9.8000306078        4.6687474500       -4.3834684017
 O        -9.7132400947        3.6941208335       -3.6712433341
 C       -10.8189164026        4.6991612118       -5.6173790677
 C       -12.0189449674        3.6928958650       -5.3160907749
 O       -12.3664432003        3.4325593086       -4.2337362219
 C       -12.9649878547        3.2292688121       -6.4889350788
 C       -11.4693608761        6.0729917966       -5.7258480599
 C        -9.9598374361        4.2866222116       -6.8578895100
 C       -10.1723029104        7.4692615631        0.4482593746
 C        -8.9614989729        8.8603621797       -1.3905248086
 C        -4.9270189855        5.0585012969        5.4758419794
 C        -3.5925585036        5.2236614721        3.3807390942
 C       -10.3969318072        1.4779921047        5.1448602880
 C        -8.7261935170       -0.4669187878        5.2695554750
 C       -10.8450484976       -1.3344912573       -0.9269238606
 C       -10.6831155242        0.2540046243       -2.8754747932
 C       -15.1591832557        4.0709518769        1.3974888618
 C       -16.7833722556        3.8168025301       -0.5548031171
 H       -13.6825753688        5.1046810949       -2.9235969405
 H       -15.1805024344        5.5949838573       -2.1062156961
 H       -15.1720838537        3.9696601822       -2.8165525982
 H       -14.5396428096        1.0087670718        1.5481368326
 H       -13.1461941601        1.9439794890        1.0147977929
 H       -14.1695843269       -0.3891051426       -0.5427667435
 H       -12.9194611810       -0.5884961172        0.7516083795
 H        -8.4478059482        1.0493958001        0.9747465057
 H        -9.2620053824       -0.5024519810        0.8532894787
 H       -11.4487558216        0.6935534878        1.7486960010
 H       -10.4480731095        1.9953566379        2.1077250156
 H        -6.4602729585        0.5465939404        3.1860453293
 H        -6.5663776053        0.4400397070        4.9219398077
 H        -4.5424175193        1.6529584210        4.2313962981
 H        -5.5985662725        2.5403271556        5.3879520433
 H        -6.0823110672        5.1603002789        1.4965001007
 H        -5.4177418606        6.6486488139        1.2821098212
 H        -7.4752326643        7.7596288208        2.0082259958
 H        -8.3348602482        6.3580217726        1.8549106909
 H        -7.7856378598        5.1761249375       -2.4002528959
 H        -7.5299915538        6.9417210270       -2.6629087304
 H        -7.9643092482        5.7345942099       -4.7839765513
 H        -9.3492854577        6.8397098235       -4.4920326822
 H       -13.1507026020        4.0823152366       -7.1707577459
 H       -13.9001129433        2.8912509832       -5.9916987448
 H       -12.4428566188        2.5024263999       -7.0440145974
 H       -10.8012518743        6.9226480935       -5.8169351904
 H       -12.1308607777        6.1486606307       -4.8313670554
 H       -12.1603595762        6.0588875137       -6.5838994384
 H        -9.0808707616        4.9064642964       -6.9381171980
 H       -10.5999876526        4.3626640496       -7.6822311557
 H        -9.6047248098        3.2771399677       -6.7505060834
 H       -10.4523215033        6.5026536869        0.8134166883
 H       -11.0719380870        7.8198637083       -0.0606476209
 H       -10.0336973767        8.0820011771        1.3653229623
 H        -9.9346370892        8.9846173306       -1.9472566135
 H        -8.2091353528        8.7757264959       -2.2057408250
 H        -8.8454847103        9.7291412224       -0.7359722477
 H        -4.4285150096        4.2335273903        5.9423489647
 H        -5.8872802549        5.1044295254        5.9390205855
 H        -4.3327685599        5.9434246212        5.6021372689
 H        -3.5503745885        5.0058553015        2.3040859223
 H        -2.8756857451        4.6963296125        3.9418984811
 H        -3.3425180098        6.2612688267        3.5311363012
 H        -9.9181801411        2.0234311808        5.9831613511
 H       -11.1734488863        0.7813598594        5.5733088807
 H       -10.8027521168        2.2003842287        4.4825223506
 H        -8.1714736475       -0.2687687583        6.1239830863
 H        -8.2038256338       -1.1554433811        4.6066479459
 H        -9.5740074833       -1.0299732780        5.7105991898
 H       -11.5338406809       -1.9764766833       -1.4669171232
 H       -11.0894220652       -1.5592119963        0.0994740001
 H        -9.8659835355       -1.7165727808       -1.1002094308
 H       -10.6584899863        1.3069776120       -3.0931092556
 H       -11.4610300901       -0.2199969579       -3.4350642338
 H        -9.6881387921       -0.2443826168       -3.0529170363
 H       -14.1393181864        4.3056048481        1.6818394034
 H       -15.5788809455        3.3356603207        2.1510551978
 H       -15.6847536657        4.9948538607        1.6130256005
 H       -17.0272900426        3.4620492345       -1.5324453916
 H       -16.9089310631        4.8364910420       -0.6376484442
 H       -17.5041345810        3.4839947219        0.1745945840
 Na      -11.3395481996        3.5350415368       -2.1199061657
