117

 C       -14.2233204721        7.8314669536       -1.7798663018
 C       -13.7913271634        7.3763825572       -0.4317669278
 O       -14.5687665964        6.7631318693        0.2800494240
 C       -12.2778332560        7.7673563662        0.0336420640
 C       -12.2549760384        7.8079089133        1.6390109371
 O       -12.0905400505        6.8479134082        2.3752083112
 C       -12.5280532834        9.1584113016        2.1966765400
 C       -12.8018592701        9.1396505012        3.7610174514
 C       -13.8665583556        8.0298243581        3.8845058837
 O       -14.6792137472        7.6694997329        3.0614904287
 C       -14.0139962938        7.2271106220        5.4924505078
 C       -13.9721052407        5.7735383841        5.1234579405
 O       -12.8329960546        5.2095363984        5.1422219368
 C       -15.2367731948        4.9931511282        4.4620943121
 C       -15.0437175579        3.3767052435        4.5730983034
 C       -14.4098567906        2.8178668633        3.1555577257
 O       -14.5077714543        3.3899330952        2.1033284378
 C       -13.8340562313        1.3506426791        3.2341352814
 C       -12.3224276067        1.7500942928        3.2256643019
 O       -11.8773137798        2.1566420691        4.3448769817
 C       -11.2489733061        1.2922857510        2.0658631033
 C        -9.8037361895        1.8119494757        2.4629811551
 C        -9.4198093883        3.2506171474        1.9443230767
 O       -10.2555973752        4.1108057301        1.9918659588
 C        -8.2490554917        3.3206078551        1.0432452542
 C        -8.5774996604        2.4635834347       -0.2255441166
 O        -8.7697471117        1.2836429310       -0.0165555111
 C        -8.7120502826        2.9505925649       -1.7445888119
 C        -7.6626798331        2.1949637444       -2.6509459312
 C        -7.6771176245        2.8526189104       -4.2052439042
 O        -8.7590711579        2.9602531181       -4.7135425201
 C        -6.3229216093        3.4380838088       -4.8383705480
 C        -5.1335099072        2.3645521271       -5.0952832272
 O        -4.0895768880        2.6480270435       -4.4633565183
 C        -5.1312024978        1.1754995527       -5.9871395970
 C        -3.9069261522        0.3364193390       -5.8487989567
 C        -4.2730623171       -1.1580192383       -5.6453316843
 O        -5.4012146376       -1.5153853059       -5.4837647808
 C        -3.0978958880       -2.2753096467       -6.1237248751
 C        -3.0213510555       -2.3781911768       -7.7105201072
 O        -2.0846377975       -2.0153663888       -8.3892078963
 C        -4.3787240071       -2.6708024434       -8.2185088024
 C        -1.7172549007       -1.9058803450       -5.5125689295
 C        -3.4017372326       -3.6804583968       -5.4304497313
 C        -6.7877097120        3.9543998884       -6.2373680255
 C        -5.9102459781        4.4953709674       -3.7443265175
 C        -7.9654023801        4.8203665874        0.7854356107
 C        -7.1246067070        2.6966916345        1.8817810633
 C       -13.9631327489        0.5818856237        4.5778303367
 C       -14.3823808215        0.4888748883        2.0705640913
 C       -12.7323951197        7.5220072879        6.3186088572
 C       -15.1759941391        8.0004621708        6.0657396379
 C       -11.4803464928        6.6017956111       -0.5728961292
 C       -11.6112015301        9.0304622402       -0.6738500227
 H       -14.9618320671        7.2101392449       -2.1350335199
 H       -13.3698437320        8.0445545421       -2.4566445828
 H       -14.8214195790        8.7140924136       -1.6202072459
 H       -13.3995563238        9.4112787362        1.6712873454
 H       -11.8612176608        9.9038673308        1.7835082798
 H       -13.0815886813       10.1004625783        4.1586428315
 H       -11.8981322701        8.7492784212        4.3179394649
 H       -15.3730725367        5.3634619335        3.4049875898
 H       -16.2170236335        5.2536430166        4.9743383633
 H       -15.9576583337        2.8031224346        4.7679511679
 H       -14.3953531844        3.1933734754        5.4589431289
 H       -11.5670328002        1.5034743809        1.0279804885
 H       -11.2856153118        0.2214153233        2.1117884207
 H        -9.0747862983        0.9569329017        2.2056418782
 H        -9.6730180716        1.9351986684        3.5448738870
 H        -8.8318390458        4.0612182086       -1.6580979994
 H        -9.7675523389        2.6584139398       -1.8788367339
 H        -7.9676146454        1.1920152454       -2.7996016757
 H        -6.6820783949        2.2418530023       -2.1168466712
 H        -5.1848497912        1.4659118967       -7.0598436740
 H        -5.9197698785        0.5256986005       -5.8672624395
 H        -3.2572056931        0.8307344227       -5.1316769391
 H        -3.3940242147        0.5039247618       -6.7785750196
 H        -4.5753002123       -3.6841760661       -8.7063777810
 H        -4.6637078933       -1.8473893343       -9.0021639141
 H        -5.1012938427       -2.3925098163       -7.5123805470
 H        -1.7239111218       -0.8583692351       -5.1707804333
 H        -0.9141986113       -2.1151819383       -6.2141680387
 H        -1.3796100152       -2.4399745638       -4.5926198921
 H        -2.8542378656       -4.4128170139       -5.9454785948
 H        -4.4397871316       -3.8881178369       -5.5363951126
 H        -2.9640846044       -3.4082319531       -4.4714786184
 H        -7.5867661518        4.6911635655       -6.3144851633
 H        -7.2196461798        3.0132718005       -6.7408095614
 H        -5.9585033976        4.4559566220       -6.8022653532
 H        -5.4514800891        5.4185113748       -4.1848067865
 H        -5.0142966943        4.1351506290       -3.2463918888
 H        -6.6305747481        4.8387236235       -3.0652682997
 H        -8.8360009565        5.2651351288        0.2435203047
 H        -7.0089625957        4.8622772918        0.2897075114
 H        -8.0249329428        5.3707341123        1.7510811826
 H        -7.3725695416        1.6929404725        2.2321217775
 H        -6.7814847149        3.3748348381        2.7018945469
 H        -6.1501409959        2.4196751295        1.3211690380
 H       -14.9293809041        0.0982537869        4.5703483341
 H       -13.7258595822        1.2010621519        5.4593736814
 H       -13.2452607327       -0.2829469422        4.5815745212
 H       -14.9665859689       -0.4005733896        2.3895211678
 H       -13.5325407851        0.2185140349        1.4498357349
 H       -15.1624302029        1.0716559260        1.6672105712
 H       -12.9563053663        7.0493030347        7.2788007735
 H       -12.5186247796        8.5782251477        6.4872194115
 H       -11.9242229929        7.1773032228        5.7892566754
 H       -14.9316989151        9.0134481092        5.9695649410
 H       -15.6083369770        7.5634948046        7.0258553947
 H       -16.1821747640        7.8291300638        5.5337872854
 H       -11.4823959268        6.8444195743       -1.6467786828
 H       -11.8477800298        5.5577628021       -0.5527631295
 H       -10.4960026991        6.7108784125       -0.1871427033
 H       -10.9849653252        9.5667796938        0.0590790813
 H       -12.4166608725        9.6819612256       -1.1157454133
 H       -10.8895761829        8.7147152189       -1.4397442556
 Na      -12.2556617585        4.4053406551        2.9124335508
