117

 C       -14.7017761199        4.0374541609       -2.2846743247
 C       -14.2657697129        3.7171451744       -0.8180958664
 O       -13.1310441285        3.7803889613       -0.4469853388
 C       -15.3795489298        3.2191695017        0.1437223961
 C       -15.4712083525        1.6550759450       -0.0604972270
 O       -16.3725662195        1.2328271434       -0.7431427165
 C       -14.3432958436        0.6187812025        0.4480537266
 C       -13.8043285519       -0.2016557710       -0.7227896495
 C       -12.5902377152        0.5302129157       -1.3398070061
 O       -12.7586367468        1.4414149874       -2.0771489904
 C       -11.1356681111        0.1833704843       -0.8397884811
 C       -10.5416273562        1.3253030347        0.0648648420
 O       -10.4423096643        2.4491039609       -0.5251687020
 C        -9.8932636398        1.0545617236        1.3801299974
 C       -10.5839174831        1.0031347248        2.7682130072
 C        -9.6918426181        0.2502976652        3.8029310572
 O        -9.4685849146       -0.9244528151        3.6319081413
 C        -9.0584320425        1.0364929438        5.0302570380
 C        -8.0201689890        2.1235035962        4.4381352689
 O        -8.4327977703        3.0040932883        3.7326878528
 C        -6.4997763022        2.0081164591        4.8195421609
 C        -5.8203308322        3.3946434164        4.9501994497
 C        -5.2076567333        3.8338243210        3.5986643710
 O        -5.2005841434        3.0839706283        2.6208917648
 C        -4.5956636859        5.2706172716        3.4382431283
 C        -5.8628564748        6.0739890159        2.8715518733
 O        -6.5686865447        6.7219372394        3.5987844826
 C        -6.2279718153        5.7688665483        1.3472134651
 C        -7.6453183593        6.2969274622        1.0292569585
 C        -7.6491723076        7.0418382795       -0.3103581226
 O        -6.6423998308        7.3603330693       -0.8911103864
 C        -9.0628978466        7.4936695176       -0.8944154279
 C        -9.4386400520        6.3600451673       -1.8851259911
 O       -10.4806318792        5.6779673897       -1.8384745515
 C        -8.3316525777        5.9174395975       -2.8637950973
 C        -8.8792386469        5.8384241645       -4.3165373028
 C        -9.7307191225        4.5496637630       -4.5862746359
 O        -9.6524918848        3.4748204025       -4.0274116091
 C       -10.7662065072        4.5927794579       -5.8223534972
 C       -11.7554829646        3.4145428926       -5.6230216581
 O       -12.3194464929        3.2245280541       -4.5571268563
 C       -12.1312522410        2.4681144929       -6.7676079056
 C       -11.6450528641        5.8867682287       -5.8356300647
 C        -9.8167791252        4.5946021801       -7.0242925686
 C       -10.1172441253        7.5945733764        0.2072284786
 C        -8.9371782423        8.8420112846       -1.5851985498
 C        -4.0624198379        5.8961675962        4.7264319656
 C        -3.4244766392        5.2017404952        2.3924840449
 C       -10.2040616881        1.8045857021        5.8431363793
 C        -8.4955031274        0.0227152164        5.9785929460
 C       -11.0425553883       -1.1487841170       -0.0455414478
 C       -10.2787460441        0.0450700399       -2.1369480358
 C       -14.9445626116        3.6272841944        1.6490402226
 C       -16.7746715788        3.7926220742       -0.0147457233
 H       -14.0361370186        4.8840084083       -2.6861982399
 H       -15.7150684704        4.2645693807       -2.3190406331
 H       -14.5061750392        3.1336026000       -2.8661122649
 H       -14.7267426817       -0.0319018555        1.2078906791
 H       -13.5654562935        1.0916023036        0.9740647229
 H       -14.5894034437       -0.4048514709       -1.4236058721
 H       -13.3671231675       -1.1993127831       -0.4612417141
 H        -9.2093910100        1.8789505804        1.4764465810
 H        -9.2917944736        0.1008641473        1.2010726302
 H       -11.4699644063        0.3627387216        2.7016235500
 H       -10.7135618211        1.9406485655        3.2141126277
 H        -6.0263650660        1.6184717489        3.8975816284
 H        -6.2487326031        1.3965021854        5.6979177170
 H        -4.9883537024        3.3869251943        5.6830377194
 H        -6.4482418084        4.2329907513        5.2385376640
 H        -6.2317512971        4.7231649986        0.9265027100
 H        -5.6358592190        6.4687107044        0.7898991853
 H        -8.0329670006        6.9459316803        1.7655678299
 H        -8.1969412999        5.3724723740        1.0331647952
 H        -7.9308153677        4.9107314395       -2.5290882038
 H        -7.4869167100        6.5718575556       -2.7560409323
 H        -8.0110301874        5.7725853403       -5.0359691859
 H        -9.3375885247        6.8190135619       -4.5362825943
 H       -11.8738179030        1.4380444167       -6.4066414404
 H       -11.5792278343        2.7226723594       -7.7146206287
 H       -13.2107309257        2.5223738267       -6.9707032576
 H       -11.0910585358        6.8083841534       -5.9842151344
 H       -12.2374792641        6.0846845135       -4.8915621022
 H       -12.2673306433        5.8124456100       -6.7237584349
 H        -9.2898558401        5.5350978022       -7.0786333868
 H       -10.4173150637        4.5988167099       -7.8563210899
 H        -9.1322880761        3.7502979621       -7.1214956444
 H       -10.2678934495        6.6322635828        0.7172289885
 H       -11.1059849782        7.8934215992       -0.0977783438
 H        -9.8310640601        8.3874272214        0.9753606878
 H        -9.8911701042        9.2556889446       -1.7787055833
 H        -8.3079845487        8.8826337582       -2.4788520774
 H        -8.5396816100        9.6062009159       -0.8667684076
 H        -3.1694581367        5.3870755527        5.0363036794
 H        -4.8116791284        5.8133723943        5.4705225881
 H        -3.7489407570        6.9481432576        4.5193386179
 H        -3.6149057125        4.5804933334        1.5356948544
 H        -2.6745513070        4.6963132383        2.8521677830
 H        -3.1141687565        6.1342388325        2.0557445103
 H        -9.9462267102        1.9158276842        6.8798356618
 H       -11.0649789717        1.1686676551        5.6906772552
 H       -10.4791221066        2.6958358391        5.3882896174
 H        -7.9549232531        0.4473438175        6.7930936975
 H        -7.7419283026       -0.6135999395        5.5257507982
 H        -9.3288768518       -0.6728203013        6.3070045470
 H       -11.5348227392       -1.8870167796       -0.6046038753
 H       -11.5346527008       -1.1426922189        0.8779634816
 H       -10.0390443059       -1.3855764237        0.1543205517
 H       -10.3836640667        0.9616352604       -2.6919884118
 H       -10.6524069168       -0.8341046493       -2.6181862799
 H        -9.2366485494       -0.0337056112       -1.7991162125
 H       -13.9589011170        3.2633437223        1.9194412495
 H       -15.7824777203        3.1755918966        2.3039130553
 H       -14.9865473781        4.6951124412        1.7046071961
 H       -17.3826796649        3.0796132362       -0.6077566963
 H       -16.7808081447        4.7196161264       -0.5202046055
 H       -17.2713011446        3.9738243167        0.9339452910
 Na      -11.4660241804        3.6462050533       -2.4059196065
