117

 C       -14.2082907447        8.0782765069       -1.9922124711
 C       -13.8931318574        7.5156275695       -0.5731293487
 O       -14.5401836240        6.7533547143        0.0347244132
 C       -12.2738946492        7.6890765824        0.0108705331
 C       -12.2845567738        7.8027973988        1.5946420829
 O       -12.0604067760        6.8951496341        2.3847954147
 C       -12.5420389901        9.2244101241        2.2289206815
 C       -12.7995307365        8.9770623881        3.7339244189
 C       -13.8601839747        7.9778905909        4.0058355929
 O       -14.6715543627        7.7544872105        3.1250669595
 C       -13.9356092282        7.3679121138        5.3860542558
 C       -13.9381407296        5.7093549637        4.9481288486
 O       -12.8473718943        5.2156056828        4.8710190491
 C       -15.1108333417        5.0038178925        4.5095111717
 C       -15.0125543263        3.5439211143        4.5385133196
 C       -14.5515263621        2.7880126314        3.2325765047
 O       -14.4267659054        3.4069890982        2.2138664737
 C       -13.8052571368        1.3920516095        3.3407926163
 C       -12.2363946020        1.6974596591        3.2641751586
 O       -11.7759528254        2.3160202429        4.2621152309
 C       -11.3760481586        1.4780272308        2.1272771345
 C        -9.9778726792        1.6477883285        2.4733995333
 C        -9.5504991992        3.0632422374        1.8311515610
 O       -10.2758832844        4.0450526521        2.1308081825
 C        -8.2791961563        3.2698020083        0.9891192867
 C        -8.5088794174        2.3315421208       -0.2415997554
 O        -8.7464297309        1.1842029840       -0.1049120192
 C        -8.5268113292        3.0354509187       -1.7747280596
 C        -7.7395152038        2.2798408422       -2.7529353796
 C        -7.6869861600        2.7935066732       -4.1498193149
 O        -8.6917247714        2.9808094932       -4.8482629554
 C        -6.2910515808        3.2584026859       -4.8272603098
 C        -5.0180100131        2.3416853293       -4.9870868833
 O        -3.9291992861        2.5974004544       -4.5350756711
 C        -5.1437481750        1.1732959567       -5.9248800456
 C        -3.8695481743        0.1981416260       -5.9062344672
 C        -4.2181003288       -1.2279242797       -5.7333405195
 O        -5.3336574141       -1.4173870726       -5.2212695332
 C        -3.1919882736       -2.2746017874       -5.9019272128
 C        -3.1595286623       -2.3529956389       -7.5947592873
 O        -2.0920411329       -2.1598902902       -8.1368696302
 C        -4.3926740539       -2.8471779495       -8.3565029451
 C        -1.7921182310       -1.9045987220       -5.4636619374
 C        -3.7300773553       -3.6847155774       -5.2908510952
 C        -6.7015633430        3.9236493836       -6.2728677899
 C        -5.9804320365        4.5422520387       -4.0280670986
 C        -8.1088693517        4.7944354531        0.5993291149
 C        -6.9515552921        2.7628063516        1.7537269200
 C       -13.9152425067        0.5945700203        4.6849416332
 C       -14.3712016065        0.4970920218        2.2166322650
 C       -12.7244501544        7.6437004522        6.3911437052
 C       -15.2709391013        7.9694460540        6.0016939338
 C       -11.5453547317        6.3655612830       -0.4522761703
 C       -11.6213448392        8.9643343974       -0.4852653045
 H       -14.5998655972        7.1825350316       -2.4698471264
 H       -13.3260896944        8.3738192843       -2.4272495501
 H       -15.0473599675        8.7139208778       -2.1414557109
 H       -13.2757915592        9.8610862720        1.6527062021
 H       -11.6814430293        9.8029166569        2.1489038329
 H       -13.0479226871        9.9747905326        4.1775197406
 H       -11.8040196170        8.6476182743        4.1662935026
 H       -15.3609934219        5.3856579193        3.4861557662
 H       -15.9915623954        5.2583537582        5.1104824901
 H       -16.0302704882        3.2116053668        4.7476133963
 H       -14.4683917260        3.1881263971        5.3809330747
 H       -11.7475799820        2.1627758676        1.3613709096
 H       -11.5864271469        0.5470484291        1.7245373755
 H        -9.4528967128        0.8554272969        1.9268084422
 H        -9.7395853009        1.5108495025        3.5317211536
 H        -8.2730351687        4.0057748488       -1.5466773642
 H        -9.6636594983        3.1526425296       -1.9974185846
 H        -8.2282876054        1.2114276646       -2.9102992563
 H        -6.6999830702        2.1549787262       -2.3169666776
 H        -5.2265742794        1.4689495666       -6.9780054617
 H        -6.0117008853        0.5320739889       -5.7570750331
 H        -3.4357499490        0.4988694810       -4.9629512699
 H        -3.1283225961        0.5661808782       -6.6276941992
 H        -4.1282377102       -3.9233636576       -8.2785161680
 H        -4.5226827640       -2.6450713363       -9.3478507353
 H        -5.4197830173       -2.5811033713       -7.9519591788
 H        -1.4817024839       -0.9030125748       -5.6957974735
 H        -1.0443139738       -2.7346317522       -5.7547625052
 H        -1.7126536389       -1.9112685755       -4.3034299855
 H        -3.0669771186       -4.4795979553       -5.4982909723
 H        -4.5120528761       -3.7153572875       -6.0647459262
 H        -3.9522063048       -3.4822739687       -4.2398123888
 H        -7.2638886547        4.8795783666       -6.3522381324
 H        -7.2659980694        3.2133379910       -6.8648266580
 H        -5.8289742623        4.2458125931       -6.6612980052
 H        -5.5735924022        5.2289458089       -4.6601377917
 H        -5.0950669153        4.4689837236       -3.3733317665
 H        -6.8022270928        5.0471048536       -3.5119561538
 H        -9.0565769236        5.2911519319        0.6821500513
 H        -7.5406038919        4.8086870549       -0.3135360744
 H        -7.6016458368        5.3387473882        1.4837581099
 H        -6.8784292766        1.6449598236        1.8069995047
 H        -6.7497132823        3.2453476994        2.6878454878
 H        -6.0381566971        2.9570252332        1.1225822897
 H       -14.9534693882        0.6239173534        5.1211755859
 H       -13.1263883768        0.8830016860        5.3342746489
 H       -13.8335203195       -0.5277737356        4.4353349945
 H       -15.0717155220       -0.2233654718        2.5878756108
 H       -13.5358056175        0.1576974729        1.7764183561
 H       -15.0015836077        1.0673634218        1.6202535910
 H       -13.2270995434        7.5037361706        7.2645484812
 H       -12.2731676352        8.6301152523        6.3576147232
 H       -11.8918631666        6.9451464176        6.1565597216
 H       -15.3450361051        8.9700620711        5.5628767485
 H       -15.5688592903        7.8030949372        7.0599513204
 H       -16.2217785073        7.4263797270        5.6372882835
 H       -11.2390685792        6.5226866726       -1.4823009936
 H       -12.1316149648        5.4188336201       -0.4498718079
 H       -10.6216430198        6.3213426022        0.2041362107
 H       -10.8055222776        9.3266833134        0.1923198182
 H       -12.4643339445        9.6734557841       -0.5426240543
 H       -11.2319150328        8.8337123786       -1.5089221117
 Na      -12.2156821420        4.6559296769        3.0727929408
