117

 C       -14.0495378838        8.2283228701       -1.9974532850
 C       -13.6871858952        7.4363387234       -0.7242241914
 O       -14.6276786101        6.8339533309       -0.2197033192
 C       -12.3629332904        7.7013550002       -0.0162986264
 C       -12.3850506184        7.8063564277        1.5187925917
 O       -12.0208006538        6.8486409796        2.2009648650
 C       -12.5008959213        9.2030232423        2.2252541658
 C       -12.6083412983        9.0317582878        3.6986124218
 C       -13.8507485997        8.0438619210        3.9896400613
 O       -14.7539326403        7.7900876606        3.2410991023
 C       -13.9538072589        7.3076000914        5.3750908210
 C       -13.9064601044        5.8394362859        4.9426883039
 O       -12.8230935310        5.3673431374        5.0096771109
 C       -15.2551791753        5.1031559437        4.5288134968
 C       -15.0816456491        3.5659383591        4.6227182531
 C       -14.3904510563        2.8863256639        3.4631198765
 O       -14.3387960201        3.4303255166        2.3400474798
 C       -13.7847133207        1.3792456981        3.5035906445
 C       -12.2643985743        1.8007677208        3.3676759252
 O       -11.7515706314        2.4621994733        4.2008079185
 C       -11.5721377617        1.4975130396        2.0210681807
 C       -10.0216031784        1.6143485299        2.2606190229
 C        -9.4784474523        2.9878241527        1.8723326404
 O       -10.1869476355        3.9583558228        2.1721030033
 C        -8.2472670335        3.2373489955        0.9175532704
 C        -8.4817871729        2.3426160798       -0.4006793749
 O        -8.6457265730        1.1424845156       -0.3574582439
 C        -8.3682352661        2.9813432456       -1.7973719431
 C        -7.6343320990        2.0948076661       -2.8353823682
 C        -7.6888949588        2.7518831777       -4.2812297732
 O        -8.6917497153        2.9262572522       -4.8899107574
 C        -6.2117398519        3.3508730946       -4.9082038714
 C        -5.0142632063        2.4031871601       -4.9725153975
 O        -3.9756758028        2.6913981841       -4.4466663618
 C        -5.1758194728        1.1988538404       -5.9475694766
 C        -3.8082531755        0.2630468917       -5.9165194232
 C        -4.2857787182       -1.1560101411       -5.4884107465
 O        -5.3580087774       -1.5071704594       -4.9816950263
 C        -3.3804204242       -2.3281191745       -5.9369216943
 C        -3.1666086004       -2.6400955479       -7.4104896861
 O        -2.1549882129       -2.2299277479       -7.9107394800
 C        -4.3026954301       -3.0811307784       -8.3550128821
 C        -1.9280409518       -2.0144019138       -5.3887818716
 C        -4.0149517793       -3.6125311118       -5.2973743758
 C        -6.5608208073        3.6871312206       -6.3397152564
 C        -5.8394342891        4.6709285933       -4.1361887157
 C        -8.1715823826        4.7330936430        0.6460518168
 C        -6.9095851694        2.8580740575        1.5029071003
 C       -14.0955190075        0.6369093379        4.9208120378
 C       -14.3288211257        0.4950412125        2.2338754513
 C       -12.8519831937        7.7032537863        6.3765562530
 C       -15.3230557064        7.6891349901        5.9388031429
 C       -11.6904968219        6.2572666935       -0.2176768561
 C       -11.6265265527        8.9526511227       -0.4540908834
 H       -14.3822519540        7.5704311376       -2.8395130677
 H       -13.3337710628        8.9529567576       -2.3157926738
 H       -15.0326760296        8.6011149954       -1.7682635506
 H       -13.3673912613        9.8414623974        1.8595958419
 H       -11.6398187079        9.8902232345        2.0049723052
 H       -12.9106659134       10.0881443053        3.9819508349
 H       -11.6627480311        8.7921043126        4.1523359002
 H       -15.4192478651        5.2685185218        3.4716568208
 H       -16.1344407268        5.4456632613        5.0111598553
 H       -15.9865803551        2.9689037612        4.7661948292
 H       -14.4885783965        3.2815322032        5.4768890433
 H       -11.9870373936        2.2373406692        1.3705830615
 H       -11.9811489090        0.5045784286        1.6481170460
 H        -9.4002689369        0.9292791032        1.7910329685
 H        -9.9528340178        1.4180484582        3.3393094978
 H        -7.8819964966        3.9144138555       -1.4837947319
 H        -9.3677900942        3.2567036134       -2.1165804087
 H        -8.0978543358        1.0424966577       -2.8902374211
 H        -6.5720117605        1.9909075215       -2.4771271165
 H        -5.4673065222        1.3399637478       -6.9672526238
 H        -6.0045770013        0.4908087462       -5.5280983663
 H        -3.1095919592        0.9243373904       -5.4014013194
 H        -3.3797337613        0.1359526911       -6.9282243140
 H        -4.5007876613       -4.0821702171       -8.2592220717
 H        -3.9777134768       -2.9740847426       -9.3629391654
 H        -5.2001678271       -2.4583362785       -8.3669002250
 H        -1.3032770803       -1.3638364155       -6.0876682023
 H        -1.3723722228       -2.8833376891       -4.9605718323
 H        -2.0430226303       -1.3338336188       -4.5274872967
 H        -3.1393361723       -4.2831791168       -5.0334515707
 H        -4.5381301087       -4.0267753811       -6.1331480429
 H        -4.5175740463       -3.2486126469       -4.4528663130
 H        -7.1164202442        4.5574964751       -6.5213108233
 H        -7.0726320712        2.9124117414       -6.7390597372
 H        -5.6157928619        4.0789493825       -6.7522524215
 H        -5.0152475843        5.2824148519       -4.5295244405
 H        -5.3645812343        4.4033343041       -3.2260778434
 H        -6.7357161962        5.2741975623       -3.8959790802
 H        -9.1641088631        5.1294944954        0.7801205972
 H        -7.6308374075        4.8336569895       -0.3283464957
 H        -7.7650388365        5.2317052723        1.4688275068
 H        -6.6460213897        1.8175733557        1.3442000079
 H        -6.9056337919        3.1042385652        2.5610736610
 H        -6.1121367870        3.3447953781        1.0696735102
 H       -14.9309037819        1.0566626761        5.5079234509
 H       -13.1404084764        0.7416919522        5.4724160983
 H       -14.4081473962       -0.3962370847        4.8164204907
 H       -15.3006590693        0.2216103047        2.4492359441
 H       -13.4998039037       -0.1909493093        2.1185517684
 H       -14.4339263276        1.1291593215        1.3572578145
 H       -13.3217568348        7.7768496535        7.3752431347
 H       -12.5842049859        8.6975504095        6.0606143687
 H       -11.9297143859        7.0934728535        6.1370440021
 H       -15.4583266270        8.7563608502        5.5187600112
 H       -15.3990946556        7.6238750940        6.9761436497
 H       -16.2039680347        7.1501554274        5.7346905112
 H       -11.3912006184        6.0013253097       -1.2675708158
 H       -12.4999246862        5.5609795600        0.0470673324
 H       -10.8629502452        6.0931506964        0.5271302516
 H       -10.5761002372        8.8174033186       -0.1862176063
 H       -12.0477889264        9.8703805196       -0.0552308174
 H       -11.7511145553        8.9969418059       -1.5452345014
 Na      -12.1233324742        4.8341981575        2.9827831292
