117

 C       -15.3573035519        3.4118950957       -2.5622222491
 C       -14.6300308429        3.6727530285       -1.2400675937
 O       -13.6463092763        4.3547308441       -1.1581989853
 C       -15.2187560028        3.0705154921        0.1040083644
 C       -15.3189026004        1.5196511648       -0.0503568453
 O       -16.2250722677        1.0232916284       -0.6937149011
 C       -14.3515176689        0.4596091397        0.6556956078
 C       -13.6827002863       -0.4102166069       -0.3943877482
 C       -12.5342323604        0.4696522080       -1.0240914670
 O       -12.7949695409        1.3956478915       -1.7354785734
 C       -11.1076382282        0.2139483886       -0.5523999647
 C       -10.5039269492        1.5099639858        0.1960151025
 O       -10.7745322137        2.5869286879       -0.2954768243
 C        -9.5810394968        1.3364201477        1.3962091973
 C       -10.1929606929        1.3716023195        2.7710097072
 C        -9.1620264766        0.7133845825        3.8156452635
 O        -8.5152445291       -0.2588957429        3.5087569725
 C        -9.0256115118        1.3884132856        5.1846928156
 C        -8.1362454201        2.7548380257        4.9749941170
 O        -8.5783060668        3.6111264636        4.1812097230
 C        -6.7666496888        2.8102504364        5.5705577614
 C        -5.9686146836        4.1020824023        5.1901523258
 C        -5.0476416015        3.8498546350        3.9198748865
 O        -4.6446592867        2.7387354580        3.6841521483
 C        -4.6455688298        5.0922767282        2.9917182217
 C        -5.9108126826        6.0307477968        2.5406766182
 O        -6.5442035747        6.7088689389        3.3485266561
 C        -6.4488601337        5.7616262493        1.1956062013
 C        -7.7515725328        6.5693812994        0.9141248073
 C        -7.7988311067        7.1658007462       -0.4706551166
 O        -6.7747736529        7.4350779800       -1.0645533536
 C        -9.1886859702        7.3494727328       -1.1670577137
 C        -9.4234835080        6.0394101988       -2.0133646081
 O       -10.3880691824        5.3623805831       -1.8089772406
 C        -8.3551143676        5.6289078121       -3.0519425554
 C        -8.9880226654        5.5466842104       -4.4673647506
 C        -9.7679932689        4.2868865811       -4.6712764136
 O        -9.5221634234        3.3130853135       -3.9832683502
 C       -10.8568606785        4.4131498196       -5.7680952866
 C       -11.7793265937        3.1847817842       -5.6491479320
 O       -12.3275731277        2.9077645535       -4.5956278400
 C       -12.2044131961        2.2991359114       -6.8701111125
 C       -11.7269426071        5.6100836126       -5.5340305824
 C       -10.1684918620        4.3813117286       -7.1276254203
 C       -10.2971614085        7.6333933752       -0.0244989305
 C        -9.0007408098        8.4911881170       -2.1768727883
 C        -3.6252929563        6.0059766155        3.7461069442
 C        -3.8150416902        4.4667321250        1.8741759622
 C       -10.3926755613        1.8619709089        5.6777861285
 C        -8.4224359610        0.3773078992        6.1635370625
 C       -11.0383976155       -1.0081468404        0.4402315998
 C       -10.2524876584       -0.0024713999       -1.8335342438
 C       -14.1051776452        3.3325590805        1.1651471254
 C       -16.5403366991        3.7886732029        0.4599938839
 H       -15.0302959309        4.0503201670       -3.2886153586
 H       -16.4574959547        3.4930686085       -2.3684664501
 H       -15.0937781889        2.4123546825       -2.8168091910
 H       -15.0302169015       -0.1795106994        1.2017690446
 H       -13.5587412268        0.9352593326        1.2131885532
 H       -14.4326472858       -0.5746585638       -1.1639222019
 H       -13.3765971743       -1.4020364855        0.0089199714
 H        -8.7594763063        2.0042746058        1.2211825452
 H        -9.0769598338        0.3795887836        1.3790275042
 H       -11.2276354781        0.9305389513        2.8692131436
 H       -10.3059602319        2.3946529837        3.1412534291
 H        -6.2303365280        1.8730859339        5.4072681047
 H        -6.9636894510        2.8323197003        6.6478863359
 H        -5.2917764485        4.4073543361        5.9849347861
 H        -6.6371232994        4.9331334876        4.9826632526
 H        -6.7378674588        4.7003242877        0.9581867470
 H        -5.6977635857        6.1175367831        0.4491401522
 H        -7.8857740253        7.3635732728        1.7238112086
 H        -8.5298058070        5.8034552256        1.1599051477
 H        -8.1052573288        4.5943801390       -2.6870534951
 H        -7.4319128219        6.2442932568       -3.0374526806
 H        -8.2285164951        5.6924983677       -5.2105152044
 H        -9.6067658419        6.4232772443       -4.5363491325
 H       -13.2321776059        2.5182373404       -7.1575409383
 H       -12.2268220755        1.2627016571       -6.6070134719
 H       -11.5348155585        2.3799514687       -7.6935753287
 H       -11.2636889290        6.5667985784       -5.4650776057
 H       -12.4460549882        5.4401978990       -4.7260263946
 H       -12.3894824929        5.6702790312       -6.3809985151
 H        -9.4131824593        5.1836871776       -7.4180534181
 H       -10.9583149613        4.4606312658       -7.9325764510
 H        -9.6728145505        3.4229468314       -7.3249386787
 H       -10.4190621951        6.7337269432        0.5369979658
 H       -11.2659393729        7.9593773637       -0.5183134471
 H        -9.9294787782        8.3999771657        0.6158486999
 H        -9.9940912987        8.8710918310       -2.5001729013
 H        -8.4964616095        8.2787800821       -3.1313910942
 H        -8.4368426803        9.2528649385       -1.6675297571
 H        -2.7734061168        5.3907109697        4.1068181822
 H        -4.1507087688        6.4830515421        4.6609357278
 H        -3.3466155217        6.8695117531        3.1697740678
 H        -4.4260276599        3.9145060172        1.1025177816
 H        -3.0036852337        3.8291296252        2.3149144507
 H        -3.1753813666        5.2412710803        1.3444964934
 H       -10.4949922874        1.6900527366        6.7857544122
 H       -11.1854324844        1.1881935614        5.2253799347
 H       -10.5230632320        2.9210541771        5.4838511231
 H        -8.1687055210        0.8192716360        7.0875560520
 H        -7.5628981738       -0.0216960192        5.6230084859
 H        -9.0958119807       -0.4785079454        6.3703559026
 H       -11.2453638044       -1.9648640827       -0.0910341941
 H       -11.6883787936       -0.8023961482        1.3458041235
 H       -10.0221683720       -1.2511591976        0.7191440180
 H       -10.4731405202        0.8428396067       -2.4535333383
 H       -10.5346235364       -0.9235401244       -2.2988425992
 H        -9.1868571243       -0.1063913005       -1.4784650706
 H       -13.1995364522        3.0170404151        0.6847388212
 H       -14.3603156748        2.8001771285        2.0940454872
 H       -14.0935082498        4.3979026931        1.3327049087
 H       -16.6985808334        4.6222472197       -0.2211689930
 H       -16.4626187738        4.1442701303        1.4851518513
 H       -17.4143237005        3.1336239755        0.3360468254
 Na      -11.7242799704        3.6062016607       -2.4444015656
