117

 C       -16.3786310015        3.0395469447       -2.4421059646
 C       -15.0507547720        3.3699275261       -1.7419728495
 O       -14.1360029163        3.7030560698       -2.4720263040
 C       -14.8858572407        3.2292961089       -0.2580162573
 C       -14.7674138515        1.6340969640       -0.0504674609
 O       -15.2789484070        0.8222695649       -0.8287751095
 C       -14.1176978988        1.1774184499        1.2779318188
 C       -13.0877454849        0.1580898123        1.0492927524
 C       -12.0931689815        0.6098185989       -0.1150557521
 O       -12.4424441623        1.4648516694       -0.8713728185
 C       -10.6504042516       -0.0182015985       -0.3135495516
 C        -9.7656519169        1.1874070621        0.1584068279
 O        -9.9755603037        2.2187122735       -0.5092553407
 C        -8.8556603353        1.0492214290        1.3159070999
 C        -9.0434935535        2.0638434322        2.4125128917
 C        -8.4519186164        1.4713359732        3.7539159470
 O        -7.8175406147        0.4548723019        3.7537860903
 C        -8.8948652458        2.2437987790        5.0964620535
 C        -8.4720421443        3.7762713207        5.1080694226
 O        -9.1561025299        4.5813011835        4.4278049703
 C        -7.2426754278        4.0802195354        5.8984590781
 C        -6.1375923498        4.8892869355        5.1984273555
 C        -5.7070853037        4.2475145013        3.8840333521
 O        -6.3824636202        3.3104983017        3.4244305762
 C        -4.6928522707        5.0603669788        3.0108180227
 C        -5.6349656248        6.0226832080        2.2225857428
 O        -5.8899005388        7.0999010836        2.7466468665
 C        -6.3574152058        5.5179101783        0.9929987966
 C        -7.6392079732        6.2652907835        0.6388625433
 C        -7.6772238873        6.8454644404       -0.7718714351
 O        -6.7024079432        6.7848688198       -1.5417294357
 C        -9.1137318554        7.1377975488       -1.4905284158
 C        -9.4935200503        5.8189473064       -2.2489589698
 O       -10.4365232440        5.0824132275       -1.8941543787
 C        -8.5258646037        5.4086118214       -3.3444206641
 C        -9.2542421110        5.2080985782       -4.6619302494
 C       -10.1953225029        3.8767451615       -4.6281021501
 O        -9.8448204090        2.9454773210       -3.9387995762
 C       -11.5589175625        3.9117082242       -5.4166615657
 C       -12.4324426925        2.5279835459       -5.2031116399
 O       -12.5960391485        2.1371030330       -4.0492482891
 C       -12.7633853731        1.6252135705       -6.3938198599
 C       -12.4173974783        5.0727881613       -4.7698010761
 C       -11.3670482844        4.2182850087       -6.9357489292
 C       -10.3348292604        7.5282077160       -0.5570890223
 C        -8.9170577818        8.2047841269       -2.5557879703
 C        -3.7489031582        5.9321087424        3.8740714235
 C        -3.9029242169        4.1681314246        2.1152042970
 C       -10.4309243976        2.1071682732        5.2594168311
 C        -8.3907492766        1.4014130995        6.2879537347
 C       -10.3851866046       -1.3501929760        0.4502137828
 C       -10.2757891027       -0.2562543051       -1.8240397963
 C       -13.6279494645        4.0935719599        0.3021601902
 C       -16.1704008043        3.4859540687        0.5901408028
 H       -17.1605242749        3.6893996270       -2.0784875972
 H       -16.5690210231        1.9424547667       -2.1646622116
 H       -16.1703240505        3.1550834706       -3.5288277254
 H       -14.9046374812        0.7450269127        1.9446913193
 H       -13.6951112583        2.0585455362        1.7979914680
 H       -13.6153789783       -0.7199455384        0.6816316345
 H       -12.5366025142       -0.1063045628        1.9980881569
 H        -7.8480047982        1.0392085845        1.0624146443
 H        -8.9789557408        0.0815041505        1.8590237832
 H       -10.1263837744        2.2622846601        2.6146084939
 H        -8.4522930413        2.9663883356        2.1975963740
 H        -6.8747162485        3.1482338352        6.2292914671
 H        -7.5764542962        4.6980554960        6.7975963087
 H        -5.2878273831        4.9997530102        5.9283809997
 H        -6.5543656611        5.8836334809        5.0059242723
 H        -6.5411491995        4.3831702398        1.1213548474
 H        -5.7026688802        5.5228607212        0.1110758993
 H        -7.8215472111        7.0720446754        1.2905947669
 H        -8.5310835968        5.5786236581        0.7563259607
 H        -8.0713309137        4.4739084214       -2.9863731961
 H        -7.7524211964        6.1236520554       -3.4409435293
 H        -8.5597232492        5.1014284454       -5.4862154981
 H        -9.7995204114        6.0752628614       -4.8540386813
 H       -13.8556037258        1.5220387214       -6.3131967847
 H       -12.2417909335        0.6905646723       -6.2388971777
 H       -12.5975137793        1.9508651484       -7.4014710198
 H       -12.1964855745        6.0337850289       -5.2370863592
 H       -12.1592410384        5.1907239903       -3.6694025175
 H       -13.4431152631        4.7639369631       -4.9005118340
 H       -10.8546534082        5.2098518647       -6.9261700006
 H       -12.3083965144        4.4048209150       -7.4666922937
 H       -10.7871693074        3.4677764320       -7.4194254630
 H       -10.6968859847        6.6423533173       -0.1540300315
 H       -11.0646244605        8.0369615317       -1.2061255047
 H        -9.9835042258        8.1613716075        0.1528127351
 H        -9.6525203072        8.0769282762       -3.3449784361
 H        -7.9311341599        8.3289017688       -2.9988936501
 H        -9.1877978810        9.1141753817       -2.0585925923
 H        -3.4613394076        5.4553985688        4.7608282728
 H        -4.3031220399        6.7932745203        4.2804500910
 H        -2.9587499076        6.3196961406        3.3550303102
 H        -4.4489399738        3.5313932876        1.4668361114
 H        -3.2094954481        3.6033707471        2.7761307701
 H        -3.2197946872        4.7806053438        1.5576576033
 H       -10.8340026880        1.8812169276        6.2295637934
 H       -10.8663785918        1.3209300604        4.6357088787
 H       -10.8789280097        2.9904326733        4.9396774890
 H        -8.7521143572        1.8854890844        7.1536479472
 H        -7.3043884308        1.3322883405        6.3523757282
 H        -8.8538273696        0.3645514583        6.3122372736
 H       -10.9008555586       -2.1739788505       -0.0094285867
 H       -10.6871386756       -1.2747101412        1.4944184828
 H        -9.3941110297       -1.6776774690        0.4251293409
 H       -10.3334346801        0.6254254918       -2.4240907574
 H       -10.8969561944       -1.0767064693       -2.1272642287
 H        -9.2135532602       -0.5871329990       -1.8929019463
 H       -12.6858392064        3.7034077648       -0.0943828036
 H       -13.7224825335        4.1198078408        1.4278575702
 H       -13.8796657223        5.0777202884       -0.0809234649
 H       -16.2024733215        4.4681956814        1.0600152837
 H       -16.3156236921        2.7851755918        1.3800926658
 H       -17.0925173246        3.3215967313        0.0269467194
 Na      -11.7032584826        3.1501940866       -2.2870267922
