117

 C       -16.3482400534        3.1387149969       -2.5724105453
 C       -15.0359478897        3.3268784158       -1.7915615036
 O       -14.0579396361        3.7886342050       -2.3549065976
 C       -14.9228796693        3.1771161374       -0.2460379982
 C       -14.7505515618        1.5669055266        0.0882328525
 O       -15.3441654610        0.7224151136       -0.5136167854
 C       -14.0438081646        1.2010932722        1.4447121987
 C       -12.8749380568        0.0300477715        1.1559191581
 C       -11.9561903533        0.5191524271        0.0022595729
 O       -12.3969091491        1.4137428147       -0.7115196574
 C       -10.5551116080       -0.0565141105       -0.2722945152
 C        -9.5026847619        1.1989591073        0.0331079175
 O        -9.5323598439        2.2088484915       -0.5638066538
 C        -8.5549245631        1.1050915915        1.2512020101
 C        -9.0269344531        2.0794368648        2.4385632677
 C        -8.6289962521        1.5211244309        3.8094162737
 O        -7.8195503688        0.6175062038        3.8893750709
 C        -9.0850203800        2.2169994076        5.1298887830
 C        -8.6681016394        3.6853037079        5.1316005275
 O        -9.2660512258        4.5043687556        4.4952240773
 C        -7.2771470025        4.1400929717        5.8697581880
 C        -6.3959125140        5.0847741500        4.9807017085
 C        -5.7403430867        4.4027835296        3.8213928459
 O        -6.2287411639        3.4020703920        3.3642231215
 C        -4.6521711123        5.2218993558        3.0203321000
 C        -5.5808320051        6.2522099799        2.1868500681
 O        -5.7585513120        7.4224390199        2.4503131748
 C        -6.3216745504        5.6058151431        1.0054067080
 C        -7.6630695917        6.3006504480        0.6827135148
 C        -7.6934116102        6.7018668428       -0.8283909106
 O        -6.7007129501        6.7295830212       -1.4633636148
 C        -9.0810691493        7.0601261936       -1.5535711558
 C        -9.5475181923        5.8378745293       -2.3503461382
 O       -10.3939220226        5.1314847292       -1.8795831061
 C        -8.7274994376        5.2779208218       -3.5135753944
 C        -9.5016225818        4.9912131722       -4.8096996848
 C       -10.4112272661        3.8320729862       -4.6326397778
 O       -10.0009007191        2.7979747389       -4.1112793100
 C       -11.7651335053        3.8830373516       -5.4068886016
 C       -12.4334843179        2.4105815856       -5.1883607302
 O       -12.5161562846        2.0634683308       -4.0483340883
 C       -12.8355945880        1.5782992659       -6.3538471725
 C       -12.6546912448        5.0590257945       -4.9324794372
 C       -11.3965815873        4.0963980485       -6.9211331633
 C       -10.0647868430        7.5113032261       -0.4532609023
 C        -8.7495231638        8.3068418166       -2.4940753114
 C        -3.6517240651        5.8871582441        3.9720064484
 C        -3.9262485008        4.2495709749        2.0733623604
 C       -10.6509894526        2.1812455941        4.9871637536
 C        -8.4865057704        1.4184869018        6.3810477544
 C       -10.3507924129       -1.2033660471        0.6314698836
 C       -10.6042310501       -0.4860741864       -1.8296935641
 C       -13.7883842177        4.0763319828        0.3068980125
 C       -16.2737961538        3.6092443322        0.5084484923
 H       -17.1237879572        2.9416043451       -1.8851460399
 H       -16.2377107743        2.4293215329       -3.3478450552
 H       -16.5027804401        4.1221904609       -2.9287947946
 H       -14.7107613126        0.7067155293        2.1046702928
 H       -13.5634739602        2.1023757943        1.8151806610
 H       -13.3024258927       -0.9792411530        0.9082938549
 H       -12.2659246519       -0.0201091113        2.0456471091
 H        -7.4987046791        1.4312761352        0.9083084927
 H        -8.4236415044        0.1745183992        1.7490594819
 H       -10.0875697338        2.1930011140        2.5130428599
 H        -8.4906585504        3.0108674458        2.2727130540
 H        -6.6415303072        3.2434065618        6.0781440694
 H        -7.5156053184        4.6578552289        6.7454608260
 H        -5.7455100963        5.6776258916        5.5759092007
 H        -7.1097282739        5.7775512806        4.5021736580
 H        -6.3753917395        4.5408006763        1.1847339784
 H        -5.7080648658        5.7399011265        0.0282223751
 H        -7.8224709805        7.2345611264        1.3823826475
 H        -8.5282886387        5.6460233335        0.7908937732
 H        -8.4000327852        4.2791982307       -3.1706590633
 H        -7.7685386114        5.8765390053       -3.6728173227
 H        -8.8449749662        4.6659336991       -5.6282735821
 H       -10.0379919223        5.8991737178       -5.2378882131
 H       -13.8881052514        1.4098942118       -6.5133275536
 H       -12.2439566803        0.6631160438       -6.2284776434
 H       -12.3971844988        1.9249705284       -7.2673715799
 H       -11.9813960937        5.9232166417       -4.9618104501
 H       -12.9784552011        4.8835171383       -3.9308085027
 H       -13.5091578889        5.2083487414       -5.6100975499
 H       -11.0417136145        5.1060244673       -7.1072423222
 H       -12.3393849033        4.0952460801       -7.4681586654
 H       -10.6917961614        3.2514607532       -7.2675840346
 H       -10.2008895406        6.7232027179        0.3430709077
 H       -10.9202796931        7.6893838944       -1.0722972421
 H        -9.7259344293        8.5085561644       -0.0032683981
 H        -9.1358975453        8.0396185963       -3.4933383675
 H        -7.6425244952        8.3410808271       -2.6211227198
 H        -9.0979521632        9.3392980840       -2.1624852554
 H        -3.4471261222        5.2244591244        4.8425145179
 H        -3.8977028013        6.8482136688        4.3841383659
 H        -2.7074461706        6.1991890401        3.3936174975
 H        -4.7283135409        3.3939529783        1.9823313780
 H        -3.0145869742        3.8088791809        2.4738076635
 H        -3.6655414584        4.6533300399        1.0300785243
 H       -11.2193657655        2.1065332133        5.9572112016
 H       -11.0697347098        1.3099289053        4.4667432307
 H       -11.0518019859        3.1406157572        4.5243975573
 H        -8.3203804777        1.9936590419        7.3288241712
 H        -7.5436105158        1.0392454580        6.0261357613
 H        -9.0330781051        0.5338886253        6.5326487241
 H       -11.1761811484       -1.9539335553        0.4741783035
 H       -10.4023295747       -0.8594751780        1.6896722718
 H        -9.4029310883       -1.8466670172        0.5136289511
 H       -10.7802220934        0.4594074752       -2.3719149334
 H       -11.4575405720       -1.2021719467       -1.9553487504
 H        -9.7368579180       -0.9269308525       -2.2474037036
 H       -12.9650998390        3.5984590742       -0.1575248302
 H       -13.7421608929        3.9436843130        1.3611860501
 H       -13.9460043082        5.1125240868        0.0415359867
 H       -16.6380011315        4.5599039813        0.1431580556
 H       -16.1296138968        3.7826267727        1.5770469037
 H       -17.1018399391        2.9431175291        0.4058906304
 Na      -11.4364031044        2.9928074754       -2.1572622267
