117

 C       -14.0232420832        8.5755402592       -2.0178572971
 C       -13.7504139336        7.6683302020       -0.8862398850
 O       -14.6168647465        6.9451730185       -0.5527468664
 C       -12.3390980645        7.5967051907       -0.1128734851
 C       -12.3839189687        7.9117873338        1.5188979179
 O       -12.2147228724        6.9541586020        2.2399129819
 C       -12.6078499775        9.2571990947        2.1964044657
 C       -12.6888901827        9.0250486649        3.7736695214
 C       -14.0374971589        8.1596973939        4.0270842956
 O       -14.9067730988        8.1141204444        3.1856710014
 C       -14.1341034175        7.4101594912        5.4259155402
 C       -13.9966636227        5.8498791528        5.1888182332
 O       -12.8344798619        5.3666595150        5.3124613242
 C       -15.1559615237        5.1719007186        4.5591141005
 C       -15.0421209640        3.6882892694        4.8420664640
 C       -14.3314725217        2.9958103156        3.5478296023
 O       -14.0243257516        3.6904087746        2.6089352472
 C       -13.8742894316        1.4997261596        3.6929034765
 C       -12.0960480846        1.7729677155        3.4991177762
 O       -11.6348740196        2.5946150095        4.2687897341
 C       -11.5018279913        1.3765800298        2.2168037221
 C       -10.0815061818        1.5146267881        1.8662220435
 C        -9.5238212206        2.9135224390        1.5421661393
 O        -9.9529826297        3.8278492080        2.2061786019
 C        -8.2298162943        3.2262088846        0.6230854876
 C        -8.2901059677        2.3956594280       -0.6887774901
 O        -8.4601613575        1.2166555522       -0.6363030588
 C        -7.9382303433        3.0470077305       -2.0346056634
 C        -7.2800244746        2.0814082415       -3.0443194678
 C        -7.4493359779        2.6772277997       -4.4655256992
 O        -8.5459068531        2.7845360187       -5.0015487640
 C        -6.1564810613        3.3847511013       -5.0906246756
 C        -4.9309983119        2.4127820164       -5.0322426268
 O        -4.0879657801        2.6101457353       -4.1882848804
 C        -5.1610213969        1.1731014763       -5.8828376077
 C        -4.0751184399        0.1414768558       -5.9769922063
 C        -4.4950509564       -1.2282749767       -5.3467941622
 O        -5.4398523188       -1.3215627224       -4.5802515766
 C        -3.5184755812       -2.5436825721       -5.7213303588
 C        -3.2463182497       -2.7504553149       -7.2742337808
 O        -2.1874062362       -2.3595834989       -7.7422897371
 C        -4.2272994497       -3.4529952358       -8.1660672261
 C        -2.3291004167       -2.3189753947       -4.8796596634
 C        -4.1680411008       -3.8232108477       -5.1419443126
 C        -6.5340704642        3.8155348743       -6.5697831310
 C        -5.8677871313        4.7023512926       -4.3388064405
 C        -8.0968348084        4.7804997008        0.4254881776
 C        -6.9509330349        2.6067672275        1.3463104486
 C       -14.1374922413        0.8460259744        5.0831103815
 C       -14.5843653845        0.5915913729        2.5219850116
 C       -13.0913354908        7.8572111037        6.4776839854
 C       -15.5239189286        7.7645440570        6.1338569166
 C       -11.8105115775        6.2410459940       -0.5063706371
 C       -11.1815362663        8.4870871151       -0.8330776690
 H       -13.4582095808        8.3395095972       -2.9472337203
 H       -13.7399628771        9.5842501637       -1.6940893003
 H       -15.1065874081        8.4123737973       -2.2916230338
 H       -13.5849867578        9.5942411839        1.8398643651
 H       -11.9522550074       10.0358515786        1.8354347155
 H       -12.7159060044        9.9233969959        4.3141019652
 H       -11.8366925619        8.3952445056        4.0556458107
 H       -15.2567779603        5.3056734053        3.4673892470
 H       -16.0740488840        5.6183247961        5.0614468363
 H       -16.0325864847        3.2055231492        4.9516760160
 H       -14.5591538026        3.4571208947        5.8304126103
 H       -12.1463979852        1.9209783813        1.4173905810
 H       -11.8352486103        0.3362632414        2.2073122340
 H        -9.8173856807        0.8506725915        0.9412710222
 H        -9.5326320459        1.0142449779        2.6840903303
 H        -7.3630770028        3.9207512531       -1.8029301680
 H        -8.9518958876        3.2974135749       -2.4450341150
 H        -7.4313990405        1.0429316023       -2.9125974055
 H        -6.2703416984        2.2391095283       -2.9216894014
 H        -5.5081900283        1.3552240563       -6.9298449234
 H        -5.9646181270        0.6545723226       -5.4475343293
 H        -3.2489164165        0.5620517932       -5.3464931230
 H        -3.6097449371        0.0791965365       -6.9683629626
 H        -4.9029061690       -4.2657580500       -7.6947863438
 H        -3.8642119301       -3.8041235371       -9.1019445246
 H        -4.8669148495       -2.5747085986       -8.5190062590
 H        -1.4593398326       -2.5055682459       -5.4219670367
 H        -2.2848218694       -2.9572182245       -3.9621361011
 H        -2.1167768934       -1.3475549725       -4.4598102063
 H        -3.4491098379       -4.5381028162       -5.1389242659
 H        -5.0427886273       -4.0420135155       -5.7546399975
 H        -4.3717051047       -3.4198097577       -4.1424700103
 H        -7.2860767412        4.6511834354       -6.3004952504
 H        -7.2780261014        3.0227975849       -6.8955145262
 H        -5.9777929484        4.4065629082       -7.2055409099
 H        -4.8371896744        4.8958604041       -4.1684959026
 H        -6.2365485050        4.9032801250       -3.2905467903
 H        -6.3104709524        5.4502146168       -4.9844486415
 H        -8.7329363574        5.1519659286       -0.3187143855
 H        -7.0908576493        4.9578083021        0.3809083556
 H        -8.6870490823        5.1961829364        1.2844744099
 H        -6.9970469299        1.5029839895        1.3981358138
 H        -6.8917740267        3.0181139315        2.3378845043
 H        -6.0162145320        2.8053133362        0.7138063348
 H       -15.0966231212        1.1353726666        5.4660803562
 H       -13.4136473956        1.1005221520        5.7944842371
 H       -14.3242335372       -0.2242729150        4.9614421343
 H       -15.6089220596        1.1141177500        2.4105972497
 H       -14.3904907882       -0.4120423916        2.8483803320
 H       -13.9772162814        0.7200013634        1.5874952608
 H       -13.2570701799        7.2262114752        7.3273797178
 H       -13.4220329445        8.9083624919        6.7832592917
 H       -12.1056035676        7.8354954141        6.0307411647
 H       -15.3492677475        8.4738766006        6.8875823978
 H       -15.9376706664        6.8221526789        6.6025801712
 H       -16.3730709726        8.0860846370        5.4575935145
 H       -12.0927105034        6.2118085615       -1.5374913571
 H       -12.2554025442        5.3923346332        0.0170750870
 H       -10.7453864552        6.1531643271       -0.4346956356
 H       -10.3550437410        8.6753770523       -0.1382715512
 H       -11.6155476119        9.4768801109       -1.0188834882
 H       -10.9412679458        8.1081198139       -1.8036475967
 Na      -11.9852646095        4.6727455844        2.7846455394
