117

 C       -15.4248059515        2.5883042521       -2.4362802321
 C       -14.6103546940        3.2990519523       -1.3246321711
 O       -13.5549640600        3.8107990183       -1.6725917203
 C       -14.9286146427        3.2594793502        0.1871613707
 C       -14.7778548276        1.6388378710        0.5713986997
 O       -15.2072682107        0.7568575085       -0.0868053319
 C       -13.8525341730        1.2831265108        1.8530458817
 C       -12.7952913302        0.2671016413        1.3499075570
 C       -11.7241701495        0.8198928890        0.3625804506
 O       -12.0686175847        1.7868787673       -0.2274898860
 C       -10.4143751041       -0.0059253771        0.0205412577
 C        -9.4097228080        1.1634767471       -0.0334154426
 O        -9.5348749764        2.0434467558       -0.9232523469
 C        -8.5120509394        1.4809494026        1.2098827819
 C        -9.3229357872        2.0038565058        2.3925164061
 C        -8.8368846924        1.4722687129        3.7220910601
 O        -7.9899765769        0.6197068261        3.9308714296
 C        -9.4667759003        2.2467224949        4.9789542980
 C        -8.7639579472        3.7246204587        4.7147341153
 O        -9.1987372027        4.5367265794        3.9609902022
 C        -7.5584297792        4.1439720851        5.6718223803
 C        -6.5031134562        5.1120879511        4.9674604274
 C        -5.8910797855        4.5834964961        3.6954345908
 O        -6.2955721787        3.5471613498        3.1960874790
 C        -4.6696913850        5.4941933197        3.1199977328
 C        -5.4011799516        6.4289690456        2.0986684029
 O        -5.4112907120        7.6200320735        2.1628054493
 C        -6.1149988595        5.7761849470        0.7688089997
 C        -7.2194899193        6.8169064233        0.2211883033
 C        -7.5407566940        6.6550983046       -1.2415785581
 O        -6.8587818590        6.2142904667       -2.0802500289
 C        -9.1493240724        7.1067020492       -1.7234265513
 C        -9.6618316669        5.7553533792       -2.3833609236
 O       -10.4716851526        5.0794886366       -1.7853067163
 C        -8.9633599457        5.2978630514       -3.7202968080
 C        -9.8690875743        5.0193784504       -4.9164745758
 C       -10.4421050877        3.6462154954       -4.9112343056
 O        -9.8159492826        2.7237237043       -4.4993400915
 C       -11.9057759149        3.5350543789       -5.5869898917
 C       -12.5374198471        2.1456938229       -5.2319233592
 O       -12.3064026142        1.6044025067       -4.1583058682
 C       -13.3188216402        1.3825616990       -6.3306952593
 C       -13.0021607238        4.6074835624       -5.2250847766
 C       -11.5399003430        3.5509805398       -7.1662310475
 C       -10.0779034622        7.5881109899       -0.5211970768
 C        -8.8761530264        8.2276440289       -2.7654335304
 C        -4.1192458113        6.3933125088        4.1887653243
 C        -3.6035897408        4.5003862452        2.4808493895
 C       -11.0452131566        2.2642309146        4.9704631697
 C        -8.8992964501        1.5977864112        6.3089142407
 C       -10.0137653672       -1.0524813944        1.0942875587
 C       -10.5431768515       -0.7308238696       -1.3498809075
 C       -14.0201165705        4.2300445752        1.0149470758
 C       -16.4698115465        3.5950133852        0.4831631524
 H       -15.5919263959        1.5004325884       -2.1564599192
 H       -14.8982205016        2.7149410467       -3.3148090392
 H       -16.4158091760        3.0764547262       -2.5170841740
 H       -14.5087536371        0.8034697986        2.6535599962
 H       -13.3948814672        2.2807077529        2.1242637536
 H       -13.3271411200       -0.4453243391        0.7814094520
 H       -12.2946536778       -0.2635209431        2.1707995555
 H        -7.7781706017        2.1776110460        0.8439529140
 H        -8.0315352578        0.4755015098        1.4273449854
 H       -10.3883781592        1.7798954237        2.1916935855
 H        -9.2996161442        3.0893343889        2.3933619731
 H        -7.0375734802        3.2958309632        6.0800114791
 H        -8.0216420590        4.7094151159        6.5499815463
 H        -5.6839656690        5.2784982476        5.7237912655
 H        -6.9099153871        6.0940397551        4.8681560330
 H        -6.6305532204        4.8461594328        1.0949006379
 H        -5.3977552484        5.7546379206        0.0412633655
 H        -6.8421699030        7.7873706893        0.3934896494
 H        -8.1704384713        6.6417919358        0.7903353368
 H        -8.4301159758        4.3577486412       -3.4488200138
 H        -8.2157980754        5.9915624770       -4.0286238461
 H        -9.1636075451        5.1473888187       -5.8270308120
 H       -10.6769900343        5.7729660484       -5.0368467556
 H       -13.7546644876        2.1061673301       -7.0301487131
 H       -14.2035821305        0.9041890246       -5.8720926452
 H       -12.6468637361        0.6296068584       -6.8666176980
 H       -12.9824229977        5.4118574565       -5.9622505708
 H       -12.8146144108        4.9040126560       -4.2172925731
 H       -13.9990450815        4.1702810799       -5.2373354848
 H       -10.8552402110        4.3739447851       -7.2821267449
 H       -12.4928624427        3.6663854348       -7.7107090802
 H       -11.0117729420        2.6821607961       -7.4542518997
 H       -10.0926652199        6.8303800125        0.3431529219
 H       -11.1317366614        7.6567905079       -0.8592377770
 H        -9.7252915368        8.6277243891       -0.1850096838
 H        -9.8709392816        8.4952263569       -3.2809671803
 H        -8.1417211441        8.0218974176       -3.5621386421
 H        -8.5625363118        9.1075715651       -2.2113263057
 H        -3.7897349589        5.8210662167        5.1188000515
 H        -4.8643305693        7.1938899201        4.3443527136
 H        -3.1107623255        6.7751298759        3.9228674287
 H        -4.0368346393        3.9098985824        1.6866464768
 H        -3.3590403945        3.7554098832        3.2701424149
 H        -2.7647684716        5.0679210596        2.0920240167
 H       -11.4539578515        2.2206476389        5.9750677253
 H       -11.4655237830        1.4457015299        4.3429272103
 H       -11.5135681040        3.1706583075        4.4415461763
 H        -8.8651280139        2.3338662773        7.1189223537
 H        -7.8194603605        1.3247338595        6.2001448505
 H        -9.4604677717        0.7361771862        6.6591354967
 H       -10.8708675389       -1.6879208566        1.4372577460
 H        -9.7072622567       -0.5826593235        2.0509480870
 H        -9.1521995837       -1.6907380460        0.8078177300
 H       -10.8127620752       -0.0657309363       -2.1936236768
 H       -11.3776152922       -1.3898572930       -1.3167312586
 H        -9.6343883830       -1.3514795125       -1.5715505567
 H       -12.9808598564        4.0225681953        0.6937385880
 H       -14.1716022627        4.1499209975        2.0228954932
 H       -14.2989209038        5.2105519937        0.6489908022
 H       -16.7157559723        4.5690026516        0.8425548718
 H       -16.9155363079        2.8738346227        1.1954377875
 H       -17.0524398083        3.5911245857       -0.4256156456
 Na      -11.2391566355        2.7667640414       -2.2470491069
