117

 C       -15.2656581127        2.4797531482       -2.3593610453
 C       -14.4810020904        3.2839747059       -1.3297041725
 O       -13.6231749347        4.0904272921       -1.6178455056
 C       -14.9045214877        3.1307163316        0.2202791492
 C       -14.6452380236        1.7474936829        0.6226533317
 O       -15.1473609466        0.8067047693        0.0614423504
 C       -13.7692885360        1.3364013302        1.8857332002
 C       -12.8367624225        0.1609384596        1.5053353115
 C       -11.8082980256        0.6881725152        0.4060572129
 O       -12.0339249933        1.7698108695       -0.0714308687
 C       -10.4696559615        0.0065150403        0.0935853116
 C        -9.4219833976        1.2077255857       -0.0444905090
 O        -9.4183514045        1.9901341771       -0.9648668819
 C        -8.4676484019        1.5522750882        1.1555735829
 C        -9.3555681352        2.0625459930        2.3434224439
 C        -8.9161918216        1.5623213126        3.7338311790
 O        -8.1306182180        0.6424625099        3.8429291892
 C        -9.3830406510        2.3505687767        4.9753448650
 C        -8.7730074447        3.6966663462        4.8010131295
 O        -9.1779028825        4.3763768248        3.9042539331
 C        -7.5683072575        4.0266660966        5.6670421271
 C        -6.6496020410        5.1417123758        5.0046575023
 C        -5.9515175055        4.6138863371        3.7395254604
 O        -6.3826104268        3.6515422384        3.1213090185
 C        -4.8423660951        5.4952904009        3.1523142842
 C        -5.4039024290        6.4192570232        1.9604171092
 O        -5.3865725622        7.6044596875        2.1866488179
 C        -6.0390519401        5.8444009200        0.6780231092
 C        -7.1252312013        6.9027202671        0.2212362532
 C        -7.6544996897        6.6139978948       -1.2539255545
 O        -6.8417315776        6.1691414867       -2.0478981361
 C        -9.0495313565        7.0470777447       -1.7484015120
 C        -9.6320835104        5.7888635221       -2.4376042231
 O       -10.4423050667        5.1186978991       -1.8456075501
 C        -8.9965180033        5.2684071916       -3.7205971646
 C        -9.8859749545        5.0881190018       -4.9406169912
 C       -10.5139661472        3.6339560309       -4.9922888800
 O        -9.8281125073        2.6913400978       -4.6241725997
 C       -11.8455457486        3.4069580277       -5.6908191138
 C       -12.4420438774        2.0117201786       -5.2718679930
 O       -12.3715038043        1.6383266427       -4.1163012135
 C       -13.4514532863        1.3158289082       -6.2081445782
 C       -12.9481372352        4.4096037250       -5.2563683160
 C       -11.6242004612        3.4594895380       -7.2111601025
 C        -9.9412103846        7.3789398126       -0.5921782460
 C        -8.9132273970        8.3139963445       -2.7159168675
 C        -4.1599042537        6.4518086370        4.1627598775
 C        -3.6869346147        4.6743281107        2.4923600401
 C       -10.9084214154        2.5268212929        4.9344428923
 C        -8.9407285732        1.6450422823        6.2758429231
 C       -10.0288776440       -1.0192514179        1.1168460475
 C       -10.6164366273       -0.6718616913       -1.3768482533
 C       -14.1178069747        4.1002295023        1.1410489984
 C       -16.4243100216        3.5462979880        0.4530360465
 H       -15.6519432554        1.6081818692       -1.8022997173
 H       -14.5685709884        2.2005517130       -3.2443513929
 H       -16.1221380104        3.1199330470       -2.7476984760
 H       -14.5049702341        1.0592871713        2.6924800204
 H       -13.1664463866        2.2377374916        2.1421261982
 H       -13.3998117459       -0.6948744249        1.1638257353
 H       -12.2466238558       -0.1483264334        2.3736983338
 H        -7.8469956414        2.4040196693        0.7283156541
 H        -7.8577987292        0.7063085952        1.3807849298
 H       -10.4050122662        1.8933286270        2.0484794415
 H        -9.3070791769        3.1713199905        2.3416434593
 H        -6.9701866041        3.0852404544        5.9126705481
 H        -7.9391552041        4.4150501598        6.6375644726
 H        -5.9430233517        5.5303382398        5.7927791335
 H        -7.2605109047        6.0330642074        4.8036265440
 H        -6.5121411633        4.9610637248        1.0596576624
 H        -5.3188670623        5.8355425536       -0.1577284483
 H        -6.6099606372        7.8329122296        0.1964746909
 H        -7.8886827971        6.9106264942        0.9318619355
 H        -8.6515849900        4.3176029362       -3.4087773214
 H        -8.1171255696        5.8546481491       -4.0083406613
 H        -9.2049415422        5.1845165256       -5.7868758252
 H       -10.6138139991        5.9164308551       -5.0192434595
 H       -13.6851520020        1.8886441962       -7.1262819378
 H       -14.4730678636        1.0768134229       -5.7594095826
 H       -12.8537025107        0.4191632625       -6.5079488341
 H       -12.7556697063        5.3713697312       -5.7450122056
 H       -12.9286800352        4.4493698690       -4.2132153684
 H       -13.9327744309        4.0502343559       -5.5889534701
 H       -10.9680399367        4.2428772143       -7.2768176728
 H       -12.5210976114        3.6851146908       -7.6811038253
 H       -11.1299791547        2.5800862705       -7.6307677210
 H        -9.9711473538        6.6671700849        0.2489094892
 H       -10.9196348346        7.3482500884       -1.0285332318
 H        -9.7461083840        8.4426217062       -0.2814372190
 H        -9.7215869774        8.2669787683       -3.4336014481
 H        -8.0036659430        8.3484852840       -3.2821009516
 H        -9.0618965554        9.2649689904       -2.1728754859
 H        -3.7168469206        5.8280562039        4.9311255131
 H        -4.7931382492        7.2164964331        4.5200934161
 H        -3.1833700466        6.8116754270        3.7397372791
 H        -4.0799620480        3.9827480134        1.7542656542
 H        -3.1851556210        4.1643630336        3.2062042084
 H        -3.0724043696        5.3623356613        1.9980546154
 H       -11.3453079501        2.5642644498        5.9239535148
 H       -11.3557208047        1.7505172131        4.3701553128
 H       -11.2450484637        3.4126391318        4.3515845063
 H        -8.6796799464        2.3661490359        7.1320978123
 H        -7.9612305052        1.1577080487        6.0890420505
 H        -9.6501063526        0.9589500541        6.6816272432
 H       -10.7891098869       -1.7762357964        1.2269867951
 H        -9.9360077388       -0.6196288503        2.0961532499
 H        -9.0773794125       -1.5233205126        0.8482519486
 H       -10.6408746509        0.1605257822       -2.1165878154
 H       -11.6452102053       -1.0621305038       -1.5364220380
 H        -9.8902859479       -1.4282192036       -1.6400450408
 H       -13.1029196313        3.8187648710        0.8991408825
 H       -14.3558012577        4.0123404172        2.1795737515
 H       -14.2520285860        5.1134921851        0.7265588695
 H       -16.5330815818        4.6236831099        0.6695010279
 H       -16.9779650299        2.9802965404        1.2645168110
 H       -17.0216514991        3.4938355195       -0.4614871847
 Na      -11.1717186044        2.6886296059       -2.2451497611
