117

 C       -15.2531139952        2.5899362618       -1.8378150326
 C       -14.4301500110        3.1682692321       -0.6917998318
 O       -13.2697323555        3.5693632912       -0.8885378865
 C       -15.0431528703        3.1350175528        0.7117101931
 C       -14.3865094383        1.8226205412        1.3709382253
 O       -15.0951695592        0.8272970710        1.3640266069
 C       -13.0439014930        1.8694497726        1.9709155262
 C       -12.2990954667        0.5961682133        1.7367914777
 C       -11.8527701312        0.4719082750        0.2763777156
 O       -12.4011860633        0.8928738053       -0.6722462890
 C       -10.3893166515       -0.2099488664        0.0734154017
 C        -9.4817771821        1.1651749576        0.1778945961
 O        -9.7043273370        2.0803119931       -0.6496128040
 C        -8.2299336094        1.2757654174        1.1442130137
 C        -8.4313838945        2.2635381336        2.3506483099
 C        -9.2165217947        1.8076691437        3.6414077693
 O        -9.7966744672        0.7334177918        3.6948241631
 C        -9.6295650546        2.8687569030        4.7448984581
 C        -8.6451181113        4.0408648648        4.8608248002
 O        -9.0823972266        5.1913245402        4.6991036098
 C        -7.1448053204        3.7325325240        5.0395731238
 C        -6.1935275195        4.9385824799        4.8083626851
 C        -5.8986802956        5.2537704972        3.3078482383
 O        -6.3915964126        4.5503463187        2.4458764496
 C        -4.7827073552        6.2864727846        2.8591356147
 C        -5.5881905332        7.2069675552        1.7683174086
 O        -5.9838919152        8.3140589450        2.0452710749
 C        -5.6611561625        6.7189528026        0.3023123908
 C        -6.9171631835        7.1716697708       -0.3524136063
 C        -7.5580014611        6.2820520255       -1.4414847171
 O        -7.0020911852        5.2904598137       -1.8959331187
 C        -8.9164004069        6.7301400216       -1.9496522622
 C        -9.5785613928        5.5041826540       -2.7338726324
 O       -10.5086281748        4.8899822156       -2.2428540577
 C        -8.9170011992        5.0007496443       -3.9627454445
 C        -9.9226494066        4.6601637292       -5.1152518350
 C       -10.5189378533        3.2578456887       -4.8899756330
 O        -9.9950777748        2.3820747387       -4.2257758556
 C       -11.9099110862        2.8675657362       -5.6585985989
 C       -12.3902891682        1.4336293646       -5.0774620153
 O       -12.2746210799        1.0937879428       -3.9016003967
 C       -12.9704175134        0.5345322056       -6.0897731315
 C       -13.1101134516        3.7755241127       -5.4635443333
 C       -11.5696011824        2.8088738096       -7.1757582757
 C        -9.8687830270        7.1454018742       -0.8499382852
 C        -8.7405733807        7.8954568298       -3.0327126161
 C        -4.2214536870        7.2022497945        3.9217149960
 C        -3.6441308505        5.5236780302        2.2631068759
 C       -11.0342113273        3.4253098383        4.3945550869
 C        -9.6932915616        2.0748810453        6.0291014343
 C       -10.0795945961       -1.3434696403        1.0867135293
 C       -10.1735945595       -0.8128531499       -1.2793008158
 C       -14.4946594060        4.3101537901        1.5410042138
 C       -16.5168493574        3.3294587329        0.6612324179
 H       -15.6483266363        3.4957757701       -2.2991003265
 H       -16.1148193469        1.9878484594       -1.3899513843
 H       -14.5710700079        2.0089517505       -2.5232340321
 H       -13.2912818666        1.9280515691        3.0086672607
 H       -12.4837813395        2.7494467882        1.7552579059
 H       -12.9165360748       -0.2573356910        2.0260539563
 H       -11.3926496342        0.5388506472        2.4178988169
 H        -7.3892552389        1.7273433571        0.5993313712
 H        -7.8585042559        0.3836840994        1.5450282501
 H        -9.0904764215        3.0938651153        2.0225381502
 H        -7.4996059203        2.7733941233        2.6670943496
 H        -6.7475678128        2.8798861332        4.4866861746
 H        -7.0189454914        3.5064728055        6.1230527182
 H        -5.2443696748        4.5384588064        5.3059730090
 H        -6.5298636542        5.7951850592        5.3517198715
 H        -5.5618741514        5.6186171397        0.2444185346
 H        -4.7153595374        6.9942225734       -0.1635356259
 H        -6.6522000542        8.1580913889       -0.9659267589
 H        -7.7057144834        7.4926745472        0.3271009187
 H        -8.3554104152        4.1079445597       -3.7473714021
 H        -8.1795977908        5.7299896901       -4.3172495164
 H        -9.4100877084        4.7902753293       -6.0370988574
 H       -10.7442938594        5.3220960188       -5.1461742626
 H       -12.2629574149       -0.1261333344       -6.6352289366
 H       -13.5466193099        1.1025718701       -6.8839159162
 H       -13.6972641381       -0.1714245764       -5.7109221017
 H       -12.9745775430        4.6992568782       -6.0404860714
 H       -13.2409127564        3.9826487105       -4.4337182650
 H       -14.0241285984        3.3189140468       -5.8711247107
 H       -11.2181410996        3.7648031197       -7.4430780723
 H       -12.4236163651        2.6526066597       -7.7465259018
 H       -10.8020835436        2.1040553955       -7.4828293004
 H        -9.9889792606        6.4919724466       -0.0403141183
 H       -10.8668815572        7.1947372213       -1.2746146844
 H        -9.7108949892        8.0671755711       -0.3923156033
 H        -9.6085479538        7.9586045320       -3.6806616269
 H        -7.8955525456        7.7328597094       -3.6840531525
 H        -8.4893770168        8.8418192150       -2.5206074633
 H        -4.0444974149        6.7561783257        4.8652172753
 H        -4.8462138541        8.0907316669        4.0135136156
 H        -3.2771585959        7.5755442538        3.5332685001
 H        -3.9892753684        4.9379607876        1.4810626798
 H        -3.3763220334        4.8053181194        2.9823433356
 H        -2.8465194201        6.1443197422        2.0089580492
 H       -11.0386129285        4.4604145838        4.7952204716
 H       -11.8567122786        2.8787888780        4.8087636292
 H       -11.1079808798        3.6101045035        3.3274331050
 H       -10.3476897559        2.4939116081        6.8498514343
 H        -8.7043368239        2.0721078450        6.5260204504
 H        -9.8889354647        1.0304866371        5.8339169797
 H       -10.9741115636       -1.8835358794        1.1977117761
 H        -9.7333589048       -1.0084779333        2.0234376782
 H        -9.2660436570       -1.9140217315        0.6675406249
 H       -10.2550744187       -0.0310294995       -2.0517486869
 H       -10.8579482599       -1.6387052033       -1.5935243249
 H        -9.2010891129       -1.2315422244       -1.4673552429
 H       -13.4613935682        4.4959362473        1.4274930640
 H       -14.6164111083        4.1181793864        2.6564160202
 H       -15.0842725272        5.2318178140        1.3895661231
 H       -16.8320936435        4.0983615612       -0.0743638105
 H       -16.9057063815        3.6073800232        1.6748429453
 H       -16.9138391270        2.3715051955        0.3001533755
 Na      -11.5486355382        2.5858845538       -2.1779825670
