117

 C       -14.9192165021        2.5446070728       -2.0073914099
 C       -14.2597736186        3.2607109760       -0.8190915575
 O       -13.2470743339        3.8763259774       -1.0447426828
 C       -14.8941324052        3.1395192346        0.5905605500
 C       -14.5194557166        1.7713666343        1.1986178979
 O       -15.2416843500        0.8223501705        1.1703239238
 C       -13.2274124473        1.6892502057        2.0642974242
 C       -12.3730277205        0.4436979519        1.8583506867
 C       -11.7166053085        0.4932493154        0.4637300706
 O       -12.3386959361        1.1466160960       -0.4278004499
 C       -10.3826078364       -0.0611318127        0.1095758451
 C        -9.3600327603        1.1937081774        0.0633849958
 O        -9.5406895863        2.0888491369       -0.6800088977
 C        -8.2639151713        1.3141323121        1.1175495579
 C        -8.6269917889        2.3934115107        2.1475511961
 C        -9.2787993329        1.7983707010        3.3934693480
 O        -9.4469767809        0.6084888612        3.4661825088
 C        -9.6174750710        2.7359750774        4.5861688445
 C        -8.6405463782        3.9904451631        4.8224789558
 O        -9.0404639547        5.1193523499        4.7244964717
 C        -7.1262870834        3.8230721955        5.2575090306
 C        -6.3466909958        5.1631224735        4.8876578541
 C        -6.0453085783        5.1890894622        3.4356816796
 O        -6.6763664250        4.5102020959        2.6468358058
 C        -4.8459140010        6.0862346632        2.8834706587
 C        -5.4385079883        7.0942517528        1.8213194556
 O        -5.8661044277        8.1503140656        2.1867905247
 C        -5.6935446360        6.5588339471        0.3584345328
 C        -6.9247751736        7.2457049171       -0.2523072627
 C        -7.4855978184        6.3799682573       -1.3906160438
 O        -6.9061993352        5.4697015566       -1.8853065505
 C        -8.9232650156        6.7411919133       -1.8859527207
 C        -9.5541770572        5.4804050385       -2.7258644379
 O       -10.2382736945        4.6590453224       -2.1856722303
 C        -9.1103141965        5.2588569830       -4.1976507677
 C       -10.0668329310        4.6602346426       -5.2060869634
 C       -10.5506669734        3.2158024787       -4.9143970049
 O        -9.8878732505        2.4199600490       -4.2983984784
 C       -11.9513462667        2.8918963769       -5.6907206778
 C       -12.5705713387        1.5425035111       -5.1424863993
 O       -12.4571032829        1.2884660438       -3.9731706694
 C       -13.2975500602        0.5611841266       -6.0628780997
 C       -13.1299222364        3.9316321038       -5.3281718013
 C       -11.5319210409        2.8448631928       -7.1686756116
 C        -9.9733080458        7.0543705071       -0.8486044874
 C        -8.6874678976        8.0314725985       -2.7605694137
 C        -4.3015474910        6.9323319515        4.0682938366
 C        -3.7818590822        5.0885982348        2.2230255078
 C       -11.0814919495        3.2845180377        4.5610949682
 C        -9.4695114286        1.9071110368        5.8794813533
 C        -9.9561253148       -1.1957798995        1.1835779919
 C       -10.4397745563       -0.6621362099       -1.3327808614
 C       -14.4105221378        4.4454681822        1.3404356962
 C       -16.4808543891        3.1396398364        0.6293147055
 H       -15.7483828944        3.1790838210       -2.4300263663
 H       -15.2706685467        1.6075780664       -1.7601664543
 H       -14.0656342570        2.5008543419       -2.6704288229
 H       -13.5686089989        2.0080781471        3.0973572099
 H       -12.5544471970        2.5671395860        1.8649733431
 H       -12.8869258948       -0.5267698518        1.9628477660
 H       -11.6083757826        0.4201760731        2.5825467896
 H        -7.2916904038        1.6306011107        0.7521150977
 H        -7.9951020794        0.3741816553        1.6702300731
 H        -9.3529174489        3.0401321532        1.6414875302
 H        -7.8269885657        3.0778111859        2.4732744510
 H        -6.6177186106        2.9987671253        4.7122816067
 H        -7.0145927126        3.6455059027        6.3326351672
 H        -5.5220967419        5.2873330740        5.5381423075
 H        -7.0930456034        6.0135784574        5.0566665705
 H        -5.7289490319        5.4817705974        0.2715036435
 H        -4.7187210898        6.8148070672       -0.1283978967
 H        -6.7237441209        8.1843848971       -0.5874057326
 H        -7.7159334187        7.3492542255        0.4922475679
 H        -8.3105937901        4.5287395831       -3.9656664098
 H        -8.6102461436        6.1140168861       -4.6469614444
 H        -9.5828108775        4.6094058177       -6.2303892166
 H       -10.8989520508        5.4246644961       -5.3294717897
 H       -12.6161182763       -0.3054850656       -6.1520344192
 H       -13.6205440075        0.8112811660       -7.0564999542
 H       -14.1168502037        0.0035613471       -5.5340607789
 H       -12.7767836695        4.9532698391       -5.4408234580
 H       -13.5278794175        3.8166366366       -4.2695423013
 H       -13.9081423407        3.7819669569       -6.0687152383
 H       -11.0022910500        3.8128093700       -7.4680661598
 H       -12.3730436755        2.6992540518       -7.9113505764
 H       -10.8266463741        2.0421668796       -7.2517011693
 H       -10.1555918162        6.2734873189       -0.0352880785
 H       -10.9960097616        7.2842690089       -1.2330577337
 H        -9.7045694582        7.9276293713       -0.1830656778
 H        -9.2544520315        7.9438744313       -3.6984959497
 H        -7.6558525082        8.3653784949       -3.0027433699
 H        -9.0195956390        8.8779081030       -2.1623691508
 H        -3.6499715826        6.2174999387        4.7018855474
 H        -5.0887346431        7.2924723550        4.8014352604
 H        -3.7997235991        7.8635950743        3.7212302534
 H        -4.2226172763        4.4636509375        1.4320267670
 H        -3.3166982169        4.3988215914        3.0156373162
 H        -2.9769529999        5.7604844469        1.8577367434
 H       -11.3710512984        3.9928289656        5.3500329701
 H       -11.7175970759        2.3402318854        4.6268845875
 H       -11.2131228969        3.8148087026        3.5973162747
 H        -9.5004066498        2.4877429620        6.7433165353
 H        -8.5192990847        1.3975566977        5.8961377726
 H       -10.1971594226        1.0642998941        5.9476521791
 H       -10.8097130564       -1.9163334145        1.3002484347
 H        -9.7944263729       -0.6810218404        2.1875426011
 H        -8.9842888163       -1.6223672480        0.9309559025
 H       -10.4555000985        0.0381962206       -2.1459471355
 H       -11.2574848843       -1.3430267595       -1.4606703459
 H        -9.5475197092       -1.2567898012       -1.5809945044
 H       -13.3255720251        4.4391357998        1.4292667207
 H       -14.7995873464        4.4680711261        2.3443785570
 H       -14.7770785979        5.2946367288        0.8503785721
 H       -16.9037097827        4.0851596853        0.3329898464
 H       -16.7837793721        2.9578443928        1.6229643378
 H       -16.8424052625        2.3309985225       -0.0044326824
 Na      -11.3809795175        2.6111136478       -2.0991265775
