117

 C       -13.9506834749        8.8644776780       -1.9754020051
 C       -13.7098608146        7.8035988922       -0.9229172875
 O       -14.5304019187        7.0008775409       -0.4997765649
 C       -12.2260083692        7.5621365675       -0.2365759429
 C       -12.3648377870        7.8262861341        1.3643422790
 O       -12.3017783668        6.8633293602        2.1117065990
 C       -12.6975041846        9.2145364231        2.1034022758
 C       -12.8177105611        9.0041597514        3.5888486497
 C       -14.0689705171        8.2639565943        4.1164074831
 O       -15.0550859372        8.1628860612        3.4366641517
 C       -14.1529947111        7.5773011461        5.5162427591
 C       -13.9957067530        5.9967910430        5.0777480450
 O       -12.9679341438        5.4884606276        5.3183801658
 C       -15.2454906908        5.1928277858        4.6445208681
 C       -15.0424639869        3.7225480936        4.7396791282
 C       -14.2350789873        3.0659817888        3.6648438216
 O       -13.9651993571        3.7178547165        2.7027906723
 C       -13.7082490151        1.6185125257        3.7356646144
 C       -12.1554017261        1.7908008788        3.5199934534
 O       -11.5725741178        2.4462416852        4.3447908550
 C       -11.5545349501        1.1459339507        2.1474538357
 C       -10.0329688351        1.4263545476        1.7251774393
 C        -9.4468844850        2.8944672312        1.4942615006
 O        -9.9641231142        3.8639715657        2.1299101794
 C        -8.2294288835        3.1689289793        0.5961709242
 C        -8.2134537037        2.3418539494       -0.7873161717
 O        -8.4403217212        1.1599383077       -0.8166509887
 C        -7.7572151385        3.1634113832       -2.0878445036
 C        -7.1015865456        2.2859394416       -3.0673810009
 C        -7.3332581506        2.7624119349       -4.5291660080
 O        -8.4105514678        2.6634294707       -5.0904920038
 C        -6.2408336727        3.5500135812       -5.2022729578
 C        -5.0134142379        2.4108304319       -5.0651880814
 O        -4.1406694412        2.3562596884       -4.2496212050
 C        -5.1738525607        1.0953926670       -5.9492227549
 C        -4.0405015171        0.0334644625       -5.9292600459
 C        -4.4564365031       -1.3196902640       -5.2946790027
 O        -5.4116493258       -1.4781324797       -4.5391423341
 C        -3.5881737694       -2.6236113182       -5.5500664740
 C        -3.3346672208       -2.7900398715       -7.0576826865
 O        -2.2759665725       -2.3472512041       -7.4347417298
 C        -4.2684722076       -3.5156032569       -7.9956614186
 C        -2.2884694119       -2.3363028348       -4.7454501654
 C        -4.5056310727       -3.8935166326       -5.0974518515
 C        -6.5594272609        3.9158316453       -6.6665916072
 C        -5.8795723673        4.7859378079       -4.4280151367
 C        -7.9459730336        4.6346793032        0.2490770835
 C        -7.0842571664        2.5913381195        1.3770352604
 C       -13.9537927766        0.9754392026        5.1205873704
 C       -14.6033118705        0.8100167026        2.6647754726
 C       -13.0473438989        8.0396827765        6.5374394441
 C       -15.6090248873        7.7796435833        6.0695015456
 C       -11.9449258412        6.0154294143       -0.5405792417
 C       -11.1338255208        8.5468681852       -0.8418753815
 H       -13.0062052757        9.0293036864       -2.5446636293
 H       -14.2515669845        9.7478447393       -1.5023912364
 H       -14.6544999746        8.4738143559       -2.7096281758
 H       -13.5350764990        9.8294140247        1.7224040494
 H       -11.8755244686        9.8017270170        1.9727455639
 H       -13.1386038452       10.0163865133        3.9636343295
 H       -11.8502411720        8.7026520607        4.0070920395
 H       -15.3469196037        5.4184334360        3.5119598377
 H       -16.2180568948        5.4310473055        5.1304308982
 H       -15.9808599014        3.1273514834        4.8344392172
 H       -14.5626554799        3.4941271534        5.6835277324
 H       -12.1163547390        1.4821498812        1.2612092079
 H       -11.7472746110        0.0973562657        2.3605908544
 H        -9.8823854871        0.8201887670        0.7706962129
 H        -9.3464351226        0.8761828429        2.4613662424
 H        -7.1454072703        3.9617248126       -1.6902360099
 H        -8.7248787155        3.5079009584       -2.6182900154
 H        -7.5758355910        1.2428743512       -3.1251975338
 H        -6.0500785068        2.1180486522       -2.8468027970
 H        -5.3100118657        1.2464075817       -6.9998824568
 H        -6.0200842019        0.5214563019       -5.7013751437
 H        -3.1455140820        0.3749078965       -5.4459224339
 H        -3.6825678054       -0.1406474069       -6.9652150621
 H        -4.8301184652       -4.2963603169       -7.4729467208
 H        -3.7174176303       -4.0208286845       -8.7626037776
 H        -4.9821461674       -2.8406304179       -8.6656354399
 H        -1.4602526824       -2.9629824593       -5.0093591496
 H        -2.5217120426       -2.5979748462       -3.6560739472
 H        -1.8410264574       -1.3530446412       -4.6230460586
 H        -3.9809480105       -4.6917887642       -5.6363013867
 H        -5.5280657550       -3.7048698963       -5.5319536323
 H        -4.4629680197       -4.0019558361       -4.0498495383
 H        -7.3775355655        4.7284628413       -6.6462605376
 H        -6.9727168034        3.0479170515       -7.1508248230
 H        -5.8548364976        4.6199402743       -7.1882602797
 H        -4.8937419302        4.8345797511       -4.1249018371
 H        -6.4149856340        4.9211191736       -3.4736714454
 H        -6.1640810838        5.6539678194       -5.0329217606
 H        -8.4881874370        4.8510269381       -0.6373948530
 H        -6.8317999016        4.7174470444        0.2475073676
 H        -8.5162291619        5.2345248560        0.9658059161
 H        -7.2921385591        1.5267856658        1.8110027047
 H        -6.8051315808        3.2486233934        2.2383313798
 H        -6.2521325126        2.4154893637        0.6831196748
 H       -15.0365739017        0.7625269903        5.1804664411
 H       -13.7196815007        1.6332725851        5.9116494636
 H       -13.5798671560       -0.0531670699        5.2001960683
 H       -15.5753030492        1.1540334980        2.9922590266
 H       -14.3157481953       -0.1844994784        2.8940798470
 H       -14.3784534459        1.0333007473        1.6470783737
 H       -13.1100098076        7.2997953628        7.2764976259
 H       -13.3291688103        8.9765578012        6.9381403073
 H       -12.0475047593        7.9073667703        6.0519641794
 H       -15.5907943688        8.3147147645        7.1679248238
 H       -16.3097135884        6.9007970611        6.0920215724
 H       -16.0869114892        8.4545618808        5.3206121341
 H       -12.1080738512        5.8090624589       -1.5673878305
 H       -12.6628226119        5.5341297517        0.0889003417
 H       -10.9541373672        5.6352168661       -0.2186681328
 H       -10.4101096541        8.8787891633       -0.0705696130
 H       -11.5572336301        9.4816486515       -1.1883066950
 H       -10.7109374489        8.0983462896       -1.7496425517
 Na      -11.9683535589        4.5837643183        2.8460634351
