117

 C       -15.3208164395        2.5757230210       -1.7300961160
 C       -14.5046977027        3.1302178303       -0.5465177728
 O       -13.3212770209        3.3616025392       -0.7197143936
 C       -15.0913435403        3.2704237111        0.8752542726
 C       -14.5095361604        1.9304857535        1.3745660180
 O       -15.2286526846        0.9370744499        1.4126959254
 C       -13.0148620782        1.8597113439        1.8170469112
 C       -12.3887393892        0.4180446532        1.6331373217
 C       -11.8178022691        0.2626757048        0.2332925653
 O       -12.5287562561        0.6260231927       -0.7559178510
 C       -10.3739431434       -0.1824665970        0.0056330744
 C        -9.4885773502        1.1262731015        0.2785081978
 O        -9.7513056701        2.0541358321       -0.4219812612
 C        -8.4750160581        1.0820550997        1.3669228580
 C        -8.5841223692        2.2880150546        2.3729300926
 C        -9.3221742923        1.8507064415        3.6399105504
 O        -9.7683873367        0.7124061900        3.7104601994
 C        -9.5832986977        2.9797283845        4.6955798541
 C        -8.4660692634        4.1426225580        4.6839724491
 O        -8.8075217086        5.2766985886        4.6395434223
 C        -6.9894992091        3.8463066277        5.0185199953
 C        -5.9837804047        4.9950610756        4.6238642105
 C        -5.7427538063        5.2701155764        3.2074797821
 O        -6.2156377932        4.5564753775        2.3269621711
 C        -4.8014915947        6.4127503851        2.7769889955
 C        -5.5646228744        7.2112099836        1.6801587921
 O        -6.0673452966        8.3042411567        1.9696443427
 C        -5.7522219799        6.6000445488        0.3209343670
 C        -6.9285193810        7.2917504073       -0.4406699848
 C        -7.5545305593        6.2682323419       -1.3432826315
 O        -6.9575229735        5.2646514161       -1.7184251114
 C        -8.9552146797        6.6810490316       -2.0743502193
 C        -9.6543862079        5.4360740292       -2.6660514672
 O       -10.7716290420        4.9861642162       -2.3487186236
 C        -8.8955397796        4.8634979308       -3.8810422727
 C        -9.8954196811        4.5430839251       -5.0082360313
 C       -10.5433125506        3.1206813689       -4.8889031246
 O       -10.0820725897        2.3216405623       -4.0753698173
 C       -11.7913821436        2.7702700585       -5.6911103293
 C       -12.2494224103        1.3530522450       -5.1840795949
 O       -12.3409738641        1.1693643193       -3.9746994103
 C       -12.7625289580        0.2612055946       -6.0879243282
 C       -12.8434733454        3.8635709158       -5.2943731906
 C       -11.4771409363        2.7438231745       -7.1742422817
 C        -9.8669906975        7.2171646511       -0.9931253535
 C        -8.8399591852        7.7626332639       -3.1579186542
 C        -4.5024964176        7.3626041455        3.9581976008
 C        -3.4660119426        5.7854816586        2.1930990928
 C       -11.0087699782        3.5350100303        4.2915060151
 C        -9.7310159454        2.4196197207        6.1144573850
 C       -10.0153033273       -1.3135068567        1.0555429683
 C       -10.1648888714       -0.6185244323       -1.4556250114
 C       -14.5496090100        4.5722854692        1.5505167033
 C       -16.5977871185        3.1073992572        0.9361835299
 H       -15.9056981806        3.3612240246       -2.1551564872
 H       -15.8958152390        1.7487999492       -1.3851140576
 H       -14.6014270924        2.1920722038       -2.3677945342
 H       -12.7325038938        2.1848463841        2.8800161148
 H       -12.5391303429        2.5485027118        1.0531540277
 H       -13.2226683453       -0.2945951524        1.7641505617
 H       -11.6766393811        0.2124100673        2.3978870548
 H        -7.4560398174        1.0816252456        0.9500833821
 H        -8.5528137027        0.1770122074        2.0687701357
 H        -9.2407203920        3.0702419557        1.9801814089
 H        -7.6324453294        2.7161926631        2.6323610549
 H        -6.6798434381        2.9300599376        4.5232720666
 H        -6.9120984711        3.6765332842        6.0794130237
 H        -5.0663205587        4.7346777359        5.0473501504
 H        -6.3939968115        5.9095812053        5.1052538603
 H        -5.7814782113        5.5121406727        0.3658741991
 H        -4.8039766221        6.6906393749       -0.2361659444
 H        -6.6132629451        8.0843094097       -1.0013967897
 H        -7.7920167861        7.6707364593        0.1579508237
 H        -8.4877906305        3.8460842977       -3.6238058998
 H        -8.0463441147        5.4293258032       -4.2448278284
 H        -9.2543146078        4.5720313820       -5.9319648931
 H       -10.6563510492        5.3481746196       -5.1891172175
 H       -12.2183789454        0.2296192801       -6.9988569234
 H       -13.7703016564        0.3375639646       -6.3850515454
 H       -12.8126350282       -0.7518845217       -5.6644628132
 H       -12.6183824037        4.7858896890       -5.8169743654
 H       -12.8673627625        3.9800439927       -4.1928984597
 H       -13.8465267997        3.5853604185       -5.5940497392
 H       -11.0939390038        3.7216912777       -7.5390157506
 H       -12.3671600715        2.4131055993       -7.7902612385
 H       -10.6645932977        2.0514490038       -7.4540274458
 H        -9.9526434858        6.4865631604       -0.1876844895
 H       -10.8733936022        7.3510453265       -1.2287139701
 H        -9.6166504319        8.1931610480       -0.5050011100
 H        -9.7968788633        8.3049716887       -3.1456776288
 H        -8.7801096895        7.3267132690       -4.1512185782
 H        -8.0627808560        8.4645869711       -3.0058824961
 H        -4.2201359411        6.7767090076        4.8603836233
 H        -5.3302123491        7.9956522774        4.0842005919
 H        -3.5719512501        7.9357393118        3.8939373214
 H        -3.6575498774        4.8132653876        1.5999995368
 H        -2.7450033056        5.4756290391        2.9676635805
 H        -3.0709758572        6.6106016659        1.5488764270
 H       -11.3196110965        4.2045054278        5.0357048481
 H       -11.6926113856        2.6973374979        4.2596442366
 H       -10.9929335095        4.0055823505        3.3004419713
 H       -10.1730687486        3.1890766626        6.6830456463
 H        -8.8165682170        2.2162166983        6.6589036306
 H       -10.3395773361        1.5257149557        6.1607883697
 H       -10.6044673090       -2.2172522049        0.8143899169
 H       -10.2098556817       -1.0055127033        2.0802173274
 H        -8.9660723255       -1.4706405721        0.9168275748
 H       -10.6579332757       -0.0712138146       -2.2427109238
 H       -10.4504139629       -1.6146833404       -1.6056523187
 H        -9.1009136895       -0.6888192191       -1.7233964373
 H       -13.6257483563        5.0182565304        1.0220700945
 H       -14.2872253474        4.5256476207        2.5794429111
 H       -15.3668691461        5.3201066334        1.4936714074
 H       -17.0093027688        3.6719601898        0.1101063998
 H       -16.9609509651        3.5481062584        1.8525991526
 H       -16.9033513144        2.0749631001        0.7764557632
 Na      -11.4576759064        2.5748374713       -2.1696509229
