117

 C       -15.3346059302        2.5476230944       -1.7216642201
 C       -14.5249823127        3.1161603429       -0.5741163506
 O       -13.3186360169        3.4007855242       -0.6409945256
 C       -15.1600088144        3.3076723329        0.8365861490
 C       -14.5262760702        1.9091263594        1.4197433851
 O       -15.2318918417        0.9216665706        1.5246051948
 C       -13.0279935241        1.7999627001        1.7444504430
 C       -12.5342630570        0.3768968721        1.5859369306
 C       -11.9577578373        0.2102496191        0.1631043647
 O       -12.5498626944        0.5435570972       -0.8158493853
 C       -10.3887587655       -0.2472862257        0.0342154486
 C        -9.5810537652        1.0955353832        0.3258414715
 O        -9.7295107537        2.1589815429       -0.2877052456
 C        -8.4414832565        1.0837444770        1.3476560512
 C        -8.6669843593        2.3141147316        2.2849894525
 C        -9.2792273854        1.9235854266        3.6424902704
 O        -9.7224419049        0.7867555311        3.8681839828
 C        -9.5439521672        3.0825311371        4.6527948879
 C        -8.4078435478        4.1814551550        4.6214372506
 O        -8.7515270840        5.3555334933        4.5181068803
 C        -6.8747741195        3.8232238644        4.9430831552
 C        -6.0064920479        5.0649345362        4.7085812543
 C        -5.6979460858        5.1615358470        3.1745917581
 O        -6.1835349582        4.4243566609        2.3325551818
 C        -4.7841414690        6.4433094690        2.7415058449
 C        -5.6319595244        7.2365090733        1.6496848631
 O        -6.0879538763        8.3334860731        1.9593359774
 C        -5.7944328037        6.6122160105        0.2919651337
 C        -6.9107529181        7.2962310533       -0.5228654856
 C        -7.6171072455        6.2986950348       -1.4740776367
 O        -7.0636550597        5.2378283551       -1.7312882700
 C        -9.0454094570        6.6642192616       -2.0390478454
 C        -9.6601873298        5.4387785658       -2.7253086196
 O       -10.7403195419        4.9874888409       -2.3345306856
 C        -8.8456143821        4.7683078323       -3.8773006667
 C        -9.7234332083        4.3530205895       -5.0351585375
 C       -10.4397957827        3.0130935884       -4.8398998106
 O       -10.0269081356        2.2014205860       -4.0338752989
 C       -11.7333750825        2.7124934248       -5.7056277107
 C       -12.3583867062        1.3481863527       -5.1360520233
 O       -12.5053999543        1.1470941062       -3.9172726138
 C       -12.5791041982        0.2252383241       -6.1124854062
 C       -12.7771511602        3.8009910862       -5.2964115492
 C       -11.4735727153        2.7646589080       -7.2377073492
 C       -10.0161160044        7.2753866591       -0.9002558895
 C        -8.8122102191        7.7276488967       -3.1467955546
 C        -4.5848782711        7.3704908435        3.9364015113
 C        -3.4169797683        6.0106845371        2.1988881017
 C       -10.8878951072        3.7654995561        4.3193886197
 C        -9.6446559715        2.5424455479        6.0468778013
 C        -9.9647757774       -1.4457690221        0.8915345298
 C       -10.1519119998       -0.5636881428       -1.4292254241
 C       -14.5824919043        4.5195470299        1.4695143922
 C       -16.6907141527        3.1763807810        1.0576587943
 H       -16.1149559690        3.2239293261       -1.8323580580
 H       -15.6712474496        1.5357263138       -1.3449774940
 H       -14.7474637033        2.3743334493       -2.6126117054
 H       -12.8255633088        1.9324961819        2.8309791750
 H       -12.4325759678        2.5536114015        1.1477548693
 H       -13.3557666536       -0.2627657981        1.8217269106
 H       -11.7457758426        0.2346137990        2.3543723498
 H        -7.4823920959        1.1861470014        0.8430508766
 H        -8.4250781360        0.2266482171        2.0268076291
 H        -9.4550697177        2.9719818435        1.8289774302
 H        -7.7548799475        2.8876813067        2.4862269019
 H        -6.5713995706        3.0027401772        4.3071600291
 H        -6.8457973015        3.4515190523        6.0137102979
 H        -5.0445733887        4.9917337614        5.2446882745
 H        -6.6317064035        5.8465787204        5.1095267797
 H        -5.8773744116        5.4974229129        0.3841859584
 H        -4.8563109455        6.6269833253       -0.2012665337
 H        -6.4952669269        8.1246124933       -1.0624950056
 H        -7.6803413292        7.6956341498        0.0700437385
 H        -8.3410388662        3.8695277002       -3.4151998303
 H        -8.0603803391        5.3868130716       -4.2609205898
 H        -9.1426352296        4.3636298876       -6.0404156107
 H       -10.4578682792        5.1714396515       -5.1677922171
 H       -12.2431646704        0.4766843473       -7.1074473862
 H       -13.6652259823        0.0050739825       -6.2142297040
 H       -12.3656015297       -0.7777797766       -5.8021983261
 H       -12.5619050994        4.8529768723       -5.6138679419
 H       -13.0006161516        3.6924276800       -4.2643405785
 H       -13.7347276151        3.5194018329       -5.7963429903
 H       -11.0878877647        3.7409507184       -7.5101812408
 H       -12.3239760784        2.4565457333       -7.8906234671
 H       -10.5915827612        2.0739305291       -7.5642272020
 H       -10.1880105542        6.6686155097        0.0367220306
 H       -11.0879173616        7.4487884898       -1.1798813438
 H        -9.7404932889        8.3092767648       -0.5382933332
 H        -9.6376145993        8.5032631740       -3.1335282278
 H        -8.8363015055        7.2375204271       -4.1133123585
 H        -7.9020373535        8.2921053065       -2.9793068739
 H        -3.8857956301        6.9889886719        4.6970033035
 H        -5.6313857530        7.5751440723        4.2270618151
 H        -4.0476218163        8.3545291980        3.7506070701
 H        -3.5946531097        5.0535261276        1.5899333185
 H        -2.7172640350        5.7006548488        2.9851950875
 H        -3.0052587113        6.8596213408        1.5567257709
 H       -11.1578232644        4.4064199723        5.1772193257
 H       -11.6367670188        2.9929791728        4.1702075073
 H       -10.8273356596        4.3114194942        3.3212042614
 H        -9.7175122232        3.4405955830        6.6929019620
 H        -8.7685238563        2.0150018831        6.4141306338
 H       -10.4853230253        1.9767794962        6.1907205647
 H       -10.5190424850       -2.2937838417        0.3881764807
 H       -10.3024195588       -1.3343956662        1.9176997103
 H        -8.8422013422       -1.5945347978        0.7811138312
 H       -10.7320778415        0.0681609774       -2.1023980333
 H       -10.4229121085       -1.5361648403       -1.7474636480
 H        -9.1177534349       -0.5287573707       -1.7355302006
 H       -13.6057160135        4.7046515121        1.0823924398
 H       -14.4581565909        4.4143446472        2.5164888301
 H       -15.1945299790        5.4235603507        1.3294427987
 H       -17.1220097700        3.8849535844        0.4202524724
 H       -16.9137435036        3.5077258005        2.0852067134
 H       -17.0705063351        2.2296120247        0.8026023442
 Na      -11.4283710551        2.5497874284       -2.0004111851
