117

 C       -13.8466413741        9.0845706046       -1.8418325194
 C       -13.5977952694        7.8770811831       -0.8510339848
 O       -14.5533723357        7.1639057789       -0.5167025205
 C       -12.2389899557        7.5855471801       -0.2472576946
 C       -12.3867647876        7.6202888215        1.2514373457
 O       -12.3419762524        6.6259105527        1.9713902497
 C       -12.7473296944        9.0042207401        1.8531528119
 C       -12.9087984481        9.1014503513        3.4231743941
 C       -14.2006639707        8.4011804463        4.0574704873
 O       -15.2564545092        8.2570034827        3.4738579034
 C       -14.2621354258        7.6395125714        5.6155126658
 C       -14.0284933692        6.0998452628        5.2201268867
 O       -12.9624368341        5.5190068904        5.1350440421
 C       -15.2893959115        5.2891889044        4.6867522498
 C       -15.1081737943        3.7693556457        4.7920517460
 C       -14.1292653506        3.2182264530        3.7209425963
 O       -13.9409777004        3.7874122939        2.6080702062
 C       -13.6622224383        1.7066767239        3.8138503104
 C       -12.1540125677        1.7451857392        3.4502427667
 O       -11.3494021744        2.1938661653        4.2408530429
 C       -11.5133075672        1.0976557814        2.1206117448
 C       -10.0374874760        1.4595787118        1.6694868490
 C        -9.6101203426        2.8753533063        1.3977023975
 O       -10.0034569634        3.8980927626        1.9362078215
 C        -8.2315750435        3.0068945628        0.5380683917
 C        -8.1236744911        2.2880309954       -0.8796317142
 O        -8.4675611955        1.1296235015       -1.0245734442
 C        -7.6767821075        3.1245315033       -2.0592640456
 C        -7.0850552835        2.3161552533       -3.1471008807
 C        -7.3583608088        2.8546971168       -4.5932813501
 O        -8.3470024885        2.4818505695       -5.1445017121
 C        -6.0625379744        3.5365720112       -5.3888514218
 C        -5.0247227691        2.2431159326       -5.2636134920
 O        -4.2419891396        2.3519483502       -4.3191702675
 C        -5.2897877489        0.9860175578       -6.1207578843
 C        -4.1247278728       -0.0834283627       -5.8216475280
 C        -4.5716107062       -1.4122207191       -5.1835278549
 O        -5.5452609818       -1.3451280528       -4.4930480074
 C        -3.7448830400       -2.7592927422       -5.3789268515
 C        -3.2401857629       -2.8474213256       -6.8819969756
 O        -2.2656902758       -2.2567474842       -7.3271499395
 C        -4.2566387549       -3.5165241067       -7.8237286475
 C        -2.3826378413       -2.5925758643       -4.6510665128
 C        -4.6703892118       -3.9038798491       -4.8540339094
 C        -6.4808408954        3.8436681651       -6.8054134039
 C        -5.6303192671        4.8754761504       -4.4394538261
 C        -7.9945163335        4.6227869547        0.3796062531
 C        -7.0163744325        2.4855771340        1.4996741203
 C       -13.7175729469        1.0623853298        5.2092420350
 C       -14.5051825447        0.9792681149        2.7663076606
 C       -13.0313791043        8.1132119591        6.4978258878
 C       -15.6798996786        8.0205998253        6.1277738018
 C       -11.9958488624        6.0703281079       -0.4477177955
 C       -11.1173458451        8.5299488716       -0.7296973391
 H       -13.0432062914        9.7066477125       -2.1410247398
 H       -14.7029209508        9.6440347067       -1.4401885683
 H       -14.1964750175        8.5316808317       -2.6603545623
 H       -13.6351864102        9.3863825936        1.3698009023
 H       -11.8950442294        9.6743973595        1.5058565997
 H       -12.9377230662       10.1699172797        3.8512595554
 H       -12.0787201175        8.5045565320        3.8322420955
 H       -15.1960731159        5.5505437851        3.5899462038
 H       -16.2891501055        5.5291786503        5.0377786502
 H       -15.9630502745        3.1033317285        4.7845531854
 H       -14.6733395789        3.5516263860        5.7489864857
 H       -11.9887109499        1.4049955404        1.2380211779
 H       -11.5651062883       -0.0020436604        2.3454915625
 H        -9.8807558802        0.8158780618        0.8338645486
 H        -9.2221922093        1.1480232536        2.3662708127
 H        -6.8235852677        3.7710557179       -1.5555320974
 H        -8.4782963449        3.7566407163       -2.4565027415
 H        -7.4958669363        1.2817629487       -3.3631138945
 H        -5.9441141202        2.1002072503       -2.9171623955
 H        -5.2677466121        1.1588116546       -7.1532338026
 H        -6.2576482005        0.4246971272       -5.9894226102
 H        -3.4130844047        0.3606333187       -5.1370750580
 H        -3.4921629893       -0.2628284264       -6.6886039600
 H        -4.8747296317       -4.2359545424       -7.3742759226
 H        -3.6657611573       -4.0843735845       -8.6417598935
 H        -4.8298857988       -2.8932475065       -8.4069242081
 H        -1.7330997300       -3.5762436407       -4.5277900218
 H        -2.4260072267       -2.1483862765       -3.6717523124
 H        -1.6947168507       -1.8662732936       -5.1461727814
 H        -4.2860103778       -4.7259702944       -5.5789959434
 H        -5.7232698653       -3.5955533910       -4.9233330715
 H        -4.3753814503       -4.1185197284       -3.8276273963
 H        -7.3579894980        4.3543537330       -6.9694190206
 H        -6.4913780047        2.9742944333       -7.4346200509
 H        -5.7770366234        4.6962031745       -7.0235085058
 H        -4.6628508689        4.8838599666       -3.8346793607
 H        -6.3643068903        4.8673154912       -3.7023020767
 H        -5.7916908958        5.8162782092       -4.9041019447
 H        -8.8794592664        5.0544452996       -0.2224777138
 H        -6.9650122520        4.6216718383       -0.0935839562
 H        -7.9902625949        5.0110882539        1.3797494973
 H        -7.2395899540        1.5955370859        2.0979778217
 H        -6.8134432461        3.3046965955        2.2692378609
 H        -6.1297529738        2.2537242029        0.9182367430
 H       -14.5565460614        0.3757616303        5.3727550657
 H       -13.7745530652        1.9148184048        5.9801670967
 H       -12.8906225669        0.3991371515        5.3471412847
 H       -15.3867307028        0.9176233331        3.2628340386
 H       -14.0097858100        0.0460693676        2.5553679201
 H       -14.4591352134        1.5688324027        1.9202549717
 H       -13.0851046506        7.3978660440        7.3722656825
 H       -13.1232561450        9.1192579973        6.7478444037
 H       -12.1751392261        7.7094163111        5.9946516856
 H       -15.6161447741        8.4445979602        7.1498190321
 H       -16.4324851991        7.1885660670        6.1619637200
 H       -16.0960819506        8.8255102696        5.4198351674
 H       -11.7195148344        5.6844406020       -1.4514955479
 H       -12.9125474214        5.6917228648        0.0003389191
 H       -11.2355133307        5.7708257476        0.2739365588
 H       -10.2952136874        8.4287872159       -0.0226545016
 H       -11.2749642479        9.6065310786       -0.8207621572
 H       -10.8742164076        8.1125515694       -1.7231350370
 Na      -11.9395313943        4.6125384726        3.0038539349
