117

 C       -15.5287642085        2.2507274294       -1.4578621714
 C       -14.6349060063        2.8277927909       -0.4092016482
 O       -13.5061521937        3.2729635464       -0.5651255596
 C       -15.1601982779        2.9353702572        1.1805014422
 C       -15.0379646314        1.4610647144        1.6184400458
 O       -15.8897518159        0.5907534772        1.5122392626
 C       -13.6199448669        1.0891236486        2.1780131309
 C       -12.9391771005       -0.2651854347        1.6269963389
 C       -12.2096151821        0.0397834544        0.2737570516
 O       -12.8651365086        0.6320175552       -0.5732879490
 C       -10.6870430446       -0.1786351229        0.0518769451
 C       -10.0597887706        1.2292386087        0.3461088055
 O       -10.4147307202        2.1782474302       -0.3023953062
 C        -8.8675169288        1.3972676153        1.3203571155
 C        -8.8079865195        2.8355399530        2.0148015560
 C        -9.0731214172        2.7711204523        3.5354951518
 O        -9.1257391797        1.6823713519        4.0111483446
 C        -9.0650211856        4.1125507239        4.4012546673
 C        -7.6697640939        4.8815110777        4.0033553244
 O        -7.6862967388        5.6266998685        3.0538363177
 C        -6.4231393351        4.7266014400        4.9264587253
 C        -5.4517232593        5.8290355667        4.6616008113
 C        -4.8460275721        5.7574440446        3.2682815613
 O        -4.6048101804        4.6684132934        2.8516888661
 C        -4.6609517751        7.1456500298        2.5593256426
 C        -6.0094865726        7.4272522166        1.7923562584
 O        -6.7823372464        8.2412873708        2.1949604547
 C        -6.2856538783        6.6641330195        0.4856064999
 C        -7.7420644281        6.4835047059        0.2192642987
 C        -8.0275566209        5.6035200656       -1.0822986234
 O        -7.3477791441        4.6554381179       -1.2578383537
 C        -9.2314858676        6.0472767071       -2.0836517647
 C        -9.6193091714        4.9210563765       -3.0767553148
 O       -10.7425327777        4.4631897937       -3.0362565631
 C        -8.5402239564        4.3185958543       -3.9377643152
 C        -9.1322294833        3.5440920764       -5.2213367007
 C       -10.1661813691        2.5204280190       -4.7638733812
 O        -9.8922339508        1.7387715635       -3.8965009145
 C       -11.5384924133        2.2937994373       -5.6449157099
 C       -12.3590157355        1.1187039825       -5.0296076647
 O       -12.8050501274        1.2231005448       -3.9048031482
 C       -12.5221561878       -0.1880506467       -5.8020812331
 C       -12.3896161571        3.5265141963       -5.4837961988
 C       -11.1297250167        2.0068798701       -7.1511648971
 C       -10.4574938969        6.4713283132       -1.3005651361
 C        -8.7107192395        7.3084658130       -2.8700263328
 C        -4.4050642930        8.1879510243        3.7213924066
 C        -3.4713744605        7.1012447112        1.6221745434
 C       -10.2294023450        4.9542770616        3.8960242429
 C        -9.1999873525        3.9320253458        5.9008197847
 C       -10.1291062046       -1.2404539218        1.0284699881
 C       -10.3549931927       -0.5227728760       -1.4775952278
 C       -14.4257941770        3.9976484737        2.0171591352
 C       -16.7002669993        3.3504271588        1.1156440315
 H       -16.4615242761        2.8193183557       -1.4221229518
 H       -15.6422238511        1.1846586486       -1.1115025108
 H       -15.0235617321        2.3413349930       -2.4616943747
 H       -13.7793595513        0.9703437814        3.2195641284
 H       -12.8686209694        1.8426376641        2.1418053090
 H       -13.7524358201       -0.9726787606        1.4099854535
 H       -12.3815991027       -0.7926374631        2.4434090774
 H        -8.0218609602        1.2140488904        0.7303415983
 H        -8.9333993288        0.7132981813        2.1466159250
 H        -9.4822329392        3.4405797906        1.3576976467
 H        -7.8605145646        3.2876180566        1.7202035122
 H        -5.9336160741        3.7360672235        4.7948706262
 H        -6.8859388430        4.7630421777        5.9339209144
 H        -4.6224982141        5.8122841246        5.4140449508
 H        -5.9250749177        6.8068099607        4.9115682930
 H        -5.8775541704        5.6591956081        0.5193086503
 H        -5.9348670189        7.3093305782       -0.3287613335
 H        -8.2300353957        7.5253947306        0.2180675622
 H        -8.2777020605        5.8830929876        1.0290792222
 H        -7.9831929343        3.5418987888       -3.3116562855
 H        -7.8268312448        5.0815211245       -4.2075439371
 H        -8.2784468530        2.9742205315       -5.6353633580
 H        -9.5071924927        4.1699839151       -6.0077988744
 H       -12.6417359548       -0.1883757103       -6.9090577013
 H       -13.4242159962       -0.7263521501       -5.3473287919
 H       -11.6192719478       -0.7823240200       -5.6922418953
 H       -11.8348102968        4.4828189902       -5.6739163981
 H       -12.6799508750        3.5535838951       -4.4701039896
 H       -13.3326587985        3.5713765738       -6.0771079222
 H       -10.7046233116        2.8736302055       -7.6715653846
 H       -12.0763443496        1.7637030718       -7.6689967584
 H       -10.4847871628        1.1059097511       -7.3928511647
 H       -10.8567230138        5.6238452816       -0.6510140865
 H       -11.3138575118        6.6868210463       -2.0706668421
 H       -10.2628466272        7.3106944516       -0.6271044246
 H        -9.5751607977        7.8273527769       -3.3317740666
 H        -8.0275574962        7.1275768366       -3.6785210817
 H        -8.1424970246        7.8570418978       -2.1411002441
 H        -3.8216190969        7.7449888296        4.5526639202
 H        -5.4231967998        8.4879119578        4.2012389121
 H        -4.0075446069        9.0910587221        3.2140875973
 H        -3.3548446692        6.1444513108        1.1431350557
 H        -2.4956195988        7.1642843611        2.1450039749
 H        -3.5375373467        7.9172894936        0.8473280755
 H       -10.2727747379        6.0033383501        4.3500961614
 H       -11.1328302006        4.4133402131        4.1687654564
 H       -10.0266000051        5.1138047871        2.8300160361
 H        -9.0433460765        4.9090511826        6.3893284185
 H        -8.5922985178        3.1380435644        6.2668718471
 H       -10.1824072143        3.5558540633        6.0534215983
 H       -10.3102934969       -2.3030762995        0.7282026532
 H       -10.4212983271       -1.0594005264        2.0612399287
 H        -9.0136066977       -1.0832222233        1.1106778888
 H       -11.2322004468       -0.4380592532       -2.1018930154
 H       -10.0070078645       -1.5565833445       -1.5273521582
 H        -9.6534950120        0.1248613537       -1.9997946904
 H       -13.4258954970        3.8808733357        2.0043430624
 H       -14.7085327781        3.9748164121        3.0746063672
 H       -14.6841693372        4.9639434560        1.6695545156
 H       -16.7834666719        4.3111475832        0.7301615962
 H       -16.8915625767        3.4561511517        2.1756196021
 H       -17.3267933764        2.6306793712        0.6722701486
 Na      -11.9802863807        2.5326568854       -2.1632623415
