117

 C       -15.3893245200        2.5845121474       -1.5584332775
 C       -14.6616133729        3.0656143581       -0.2713603829
 O       -13.4629406254        3.3372726821       -0.3698163369
 C       -15.2811898880        2.7889256944        1.1414950825
 C       -14.9091053888        1.2058513388        1.3130831609
 O       -15.5201696922        0.4358411135        0.6300781218
 C       -13.8913090697        0.7389694674        2.3374806804
 C       -12.9133542579       -0.3697584739        1.8481862412
 C       -12.1564617299        0.1262223009        0.6052375618
 O       -12.7615886834        0.7658658068       -0.2221180003
 C       -10.6063061191       -0.2149811479        0.3321634081
 C        -9.9078476613        1.2366977268        0.4818581693
 O       -10.2893409355        2.2031059032       -0.2158158508
 C        -8.8639862380        1.4992283914        1.6208723489
 C        -8.8258317293        2.9535559799        2.0701803150
 C        -8.8467092809        3.0436422384        3.6403702051
 O        -9.0636772656        2.0273332827        4.3125091712
 C        -8.7599646288        4.4235502055        4.3642955863
 C        -7.4368816784        5.1289437640        3.8918484369
 O        -7.2662726593        5.2717480389        2.6959233914
 C        -6.4584134226        5.6203609897        4.9645690825
 C        -5.6375792815        6.8467808309        4.5300411908
 C        -4.7286956720        6.3780939334        3.3893903846
 O        -4.1446033240        5.2910646196        3.3659913749
 C        -4.5180868635        7.4299145410        2.2599541623
 C        -5.8711645315        7.5911394457        1.3720205974
 O        -6.7333893176        8.4081949309        1.6991642504
 C        -6.1694944724        6.5577201926        0.1990945462
 C        -7.7034078150        6.6706446181       -0.1469100487
 C        -8.2639512218        5.5758309456       -1.0656808680
 O        -7.8566249679        4.4119641131       -0.9553984884
 C        -9.5289472826        5.9231142637       -2.0275926861
 C        -9.9623021181        4.6076064395       -2.8179501744
 O       -11.1176910058        4.2440710323       -2.7232114029
 C        -8.8483055397        3.7641290070       -3.5753407015
 C        -9.3151728011        3.2757780277       -4.9660927304
 C       -10.3368082932        2.1177262651       -4.7100639834
 O       -10.1934219585        1.4180582887       -3.7105404157
 C       -11.3879802567        1.7656092685       -5.7949453891
 C       -12.5206201843        0.9374784652       -5.1387849035
 O       -12.8117192462        1.0401820717       -3.9467931242
 C       -13.3816034752        0.1177073268       -6.1358272586
 C       -12.1119482417        3.1124357102       -6.2171374175
 C       -10.6094927732        1.0593580598       -6.8985390181
 C       -10.6893898940        6.3614962612       -1.1222430836
 C        -9.2262393309        7.0112086335       -3.0794532459
 C        -4.1723744472        8.7850502595        3.0262904688
 C        -3.2556982346        6.9971070600        1.3920897052
 C        -9.8709556415        5.3691925097        3.9145946056
 C        -8.8497197356        4.3127611538        5.8774271504
 C        -9.9322772529       -1.2294857891        1.2202256849
 C       -10.4362459743       -0.6937334795       -1.1056051929
 C       -14.6688145462        3.7168440093        2.0467137506
 C       -16.8548673741        2.9995588804        1.0995768848
 H       -16.4350528262        2.8800158988       -1.5421082468
 H       -15.3377810725        1.5651208901       -1.4563570608
 H       -14.8166953995        2.9135172328       -2.3865787253
 H       -14.5412546083        0.3052516607        3.1526511522
 H       -13.2633231914        1.5215582476        2.8554948292
 H       -13.4537078909       -1.2451620581        1.5552821920
 H       -12.2041853020       -0.6434964591        2.6698068880
 H        -7.8419333093        1.2408404195        1.3390774398
 H        -8.9531254648        0.9455738656        2.5898380706
 H        -9.7747385599        3.4898444316        1.7576608574
 H        -7.9922525260        3.5808176482        1.7337688254
 H        -5.7373641599        4.8442406546        5.1673392169
 H        -7.0516911411        5.8005983705        5.8649399203
 H        -5.0586688447        7.1689085286        5.4219940461
 H        -6.2556918426        7.5857349091        4.1145978280
 H        -5.8340233796        5.5795205664        0.5723557383
 H        -5.5990824043        6.8473614731       -0.6560961079
 H        -7.8604501152        7.7120694660       -0.5903861933
 H        -8.2882051930        6.6492672968        0.7268042610
 H        -8.5900653621        2.8775192963       -2.9552238005
 H        -7.9354991275        4.3238141354       -3.6703468187
 H        -8.3517055716        2.8978560069       -5.4370786844
 H        -9.7541025160        4.0478368308       -5.6159229365
 H       -14.4227242488        0.4274970046       -6.1312661541
 H       -13.5891884235       -0.8908575268       -5.8600745811
 H       -13.0881986484        0.1816981984       -7.1682614217
 H       -11.4899347164        3.8501977216       -6.7050477168
 H       -12.6062755624        3.6032474983       -5.3837076718
 H       -12.8828109680        2.8778610157       -6.9461986736
 H       -10.0415486158        1.8289067682       -7.4572625383
 H       -11.2299759009        0.4875978028       -7.5445653685
 H        -9.9483696070        0.4027499634       -6.4412384910
 H       -10.7912968796        5.6170128127       -0.3865179003
 H       -11.5132181096        6.3235541608       -1.7631704210
 H       -10.5340079034        7.3605871106       -0.7181447418
 H       -10.0999668835        7.3260684632       -3.6190354825
 H        -8.4336474372        6.6354303385       -3.7046473629
 H        -8.9256604744        7.9943470658       -2.6461104207
 H        -3.3490150709        8.6784880655        3.7120620157
 H        -5.0075855110        9.2484274149        3.4688782821
 H        -3.8294112299        9.4563930825        2.3191225346
 H        -3.1570565563        5.9452857317        1.2588849428
 H        -2.3928310984        7.4031750006        1.9318275568
 H        -3.2143842650        7.3813012555        0.4168092401
 H        -9.7145003799        6.2787153265        4.4907419206
 H       -10.8099671991        4.9260361440        4.2091612324
 H        -9.8799588132        5.4314284463        2.8866694280
 H        -9.2712204516        5.1608853653        6.4031523236
 H        -7.9130563306        4.0732467291        6.3318552554
 H        -9.6197858366        3.4858530542        6.0614480224
 H       -10.2251832453       -2.1823484818        0.9012889698
 H       -10.1561463327       -1.1683966263        2.2897106470
 H        -8.8496113038       -1.2017680042        1.0435156963
 H        -9.5996975583       -1.3703283372       -1.2171248247
 H       -10.1375850307        0.2231614836       -1.7081474346
 H       -11.3492044768       -1.1177880829       -1.5347907128
 H       -13.5520632461        3.4722916308        2.0694943776
 H       -15.1333685230        3.6291614781        3.0707951800
 H       -14.7284129063        4.7660000917        1.6906641184
 H       -17.0321264946        3.8904657432        0.4284196074
 H       -17.2451700966        3.1813382361        2.1042634437
 H       -17.3371688647        2.0921928545        0.6511860814
 Na      -12.1085907815        2.3174228996       -2.0195831342
