117

 C       -15.1751688457        2.5022769647       -1.8343811052
 C       -14.4315541133        2.9735806310       -0.5556684692
 O       -13.2995989088        3.5246909841       -0.5063111200
 C       -15.2041362951        2.7240839127        0.8726235157
 C       -14.8582973358        1.0436459164        1.2663590126
 O       -15.5333296784        0.1822382790        0.8449064055
 C       -13.7875592073        0.7514200460        2.3280843857
 C       -12.8670976242       -0.3460232386        1.8802309984
 C       -12.1919506022        0.0212858803        0.5654680651
 O       -12.8665966446        0.5968619971       -0.3666558493
 C       -10.6061374162       -0.2352493010        0.3696776461
 C        -9.9942803359        1.2727683623        0.5569630263
 O       -10.2103791729        2.0757691036       -0.3049015403
 C        -9.1522030507        1.4990888338        1.7644486299
 C        -8.9427679610        3.0088155429        2.1205014296
 C        -8.8301578654        3.0691336564        3.6684959650
 O        -9.0100240015        2.0432088463        4.3179791462
 C        -8.7025232984        4.4863678807        4.4374461119
 C        -7.4208415730        5.2317174957        3.9982203300
 O        -7.0830711346        5.0956714434        2.8417630446
 C        -6.6745433613        6.2396885345        4.9758076377
 C        -5.6876184947        7.2394768657        4.3093489877
 C        -4.6833546248        6.7019392081        3.2485300353
 O        -4.2558425823        5.5589712112        3.3864167756
 C        -4.3932711400        7.5417505069        1.9792312426
 C        -5.7585068690        7.7081256734        1.2564631478
 O        -6.6320813061        8.5104362623        1.6639957725
 C        -6.1568393116        6.6908201942        0.2014058686
 C        -7.6091173690        7.0295384436       -0.3636547311
 C        -8.2491575444        5.7437097028       -0.9984920629
 O        -7.7757176040        4.6097472072       -0.7984850500
 C        -9.5412645743        5.9578815410       -1.8947604844
 C        -9.9324318420        4.6868087018       -2.6964280381
 O       -11.1208007738        4.4104768564       -2.8416490539
 C        -8.8632576704        3.7206150086       -3.3550080307
 C        -9.3917657758        3.1487092496       -4.6856126307
 C       -10.4046869442        1.8851079863       -4.5373525524
 O       -10.3989145795        1.0917412732       -3.5851699404
 C       -11.4526249148        1.6186613322       -5.6217391860
 C       -12.7770213569        1.0343636152       -5.0054878267
 O       -13.1333546615        1.2614134108       -3.8625933942
 C       -13.7042423080        0.2094639851       -5.8956202904
 C       -11.8405884556        2.8757999448       -6.4275845882
 C       -10.9203820390        0.5360235145       -6.5955989159
 C       -10.7743961808        6.3695619811       -1.0283404610
 C        -9.2252047865        7.0656677287       -2.8936644191
 C        -3.8601725358        8.9488945225        2.4898143424
 C        -3.3372361169        6.8406203775        1.0716317306
 C        -9.9496975257        5.3192414526        4.0384947722
 C        -8.8459207652        4.2128229345        5.8563805016
 C       -10.0879699069       -1.2604791304        1.4152156329
 C       -10.3400870448       -0.7442665745       -1.0632388792
 C       -14.6158795327        3.5615641479        1.9955647054
 C       -16.7055298021        2.7116867018        0.7782269188
 H       -16.2768515388        2.3506289104       -1.5798525002
 H       -14.7065555237        1.6171623013       -2.2802951991
 H       -15.0129780460        3.4238164719       -2.4982010777
 H       -14.2950582896        0.3602056889        3.2249471482
 H       -13.1355105084        1.6578535673        2.4066460365
 H       -13.4710755835       -1.2292892155        1.7202300116
 H       -12.1052202069       -0.4790126252        2.6522776742
 H        -8.1432848886        1.1400155484        1.6756869346
 H        -9.4483536091        0.8896464433        2.6610855622
 H        -9.8730225060        3.4822116278        1.9440947107
 H        -8.1613195318        3.5026134357        1.5622373562
 H        -6.1844879416        5.6444605735        5.7947893280
 H        -7.4865341769        6.7842397953        5.4364551027
 H        -5.0804118798        7.6836379032        5.0719323741
 H        -6.3683540712        7.9668856662        3.8118036743
 H        -6.1085497699        5.6321794442        0.4831951062
 H        -5.3507444950        6.7810377605       -0.6422540611
 H        -7.6637405070        7.8556022799       -1.0452082909
 H        -8.2685745925        7.2346346149        0.4551939707
 H        -8.6642038014        2.9221861082       -2.5946571610
 H        -7.9370319665        4.2316628636       -3.4838821354
 H        -8.5924746114        2.7079505638       -5.2302865188
 H        -9.8282328224        3.8892736055       -5.2951699438
 H       -14.1192786552       -0.6875179652       -5.3234648180
 H       -13.0767254452       -0.3246970543       -6.6872750765
 H       -14.4773861029        0.6468442678       -6.5205756150
 H       -11.0625063681        3.2491126201       -7.1401592264
 H       -12.0406321478        3.6865000097       -5.7808654749
 H       -12.7611451630        2.6698765946       -7.0147164736
 H        -9.8416674680        0.7820539910       -6.7051027343
 H       -11.4126355125        0.5658625281       -7.5830575134
 H       -11.0864607801       -0.4677096941       -6.2003233972
 H       -11.0834152598        5.5328104979       -0.3895735926
 H       -11.5709734596        6.6921423862       -1.7426702599
 H       -10.3612122235        7.1271151877       -0.3605748269
 H       -10.0096833271        7.0696418874       -3.7078180076
 H        -8.2218458503        7.0048544047       -3.3275248369
 H        -9.1825265503        8.0576429728       -2.4478751345
 H        -3.6300913341        8.9085112001        3.5916649558
 H        -4.5512254263        9.8584003472        2.2809590621
 H        -2.9398999516        9.2297076008        1.9524286161
 H        -3.6725024711        6.0925993253        0.3989955624
 H        -2.5875026759        6.3376958921        1.7600840592
 H        -2.7900051612        7.5568822583        0.4468553735
 H        -9.9505099017        6.2535168072        4.7350287088
 H       -10.8509472002        4.7053775539        4.2863389593
 H        -9.9227684250        5.5794204413        2.9784414156
 H        -8.4823083040        5.0655062936        6.4435657416
 H        -8.2836702442        3.3459323291        6.1167434399
 H        -9.8927412048        4.0623084250        6.2316432530
 H       -10.7489516899       -2.1490662131        1.4378707061
 H        -9.9241306349       -0.7993287161        2.4032061893
 H        -9.0533199694       -1.6176831878        1.1529420885
 H        -9.8703316090       -1.6982183380       -1.0154229349
 H        -9.6707660988       -0.0149983435       -1.5968146442
 H       -11.3128579589       -0.8998060017       -1.5075726812
 H       -13.5962037476        3.7495426160        1.8574060122
 H       -14.8022456853        3.0405348370        2.9402778440
 H       -15.2320530262        4.4145877814        2.0966959428
 H       -17.0317786641        3.7028770824        0.6115638237
 H       -17.1071579441        2.4140927220        1.7318988914
 H       -17.0243380131        2.0535217137        0.0066542205
 Na      -11.8825275652        2.1088310409       -1.9552415690
