117

 C       -15.2063611639        2.6411422388       -1.7019333116
 C       -14.5196685599        2.9696506667       -0.4371495697
 O       -13.4325085858        3.5064485799       -0.4704347556
 C       -15.1756084063        2.5824684951        0.9942283995
 C       -14.8723466203        1.1010033004        1.2727036497
 O       -15.5487009625        0.2525253449        0.7514950084
 C       -13.8365888441        0.7819692146        2.3622222835
 C       -12.8555571332       -0.2497556101        1.8749276503
 C       -12.1303862097        0.1157062335        0.6015229395
 O       -12.7379338568        0.6392627148       -0.3575448390
 C       -10.6494986594       -0.1981875576        0.4026456969
 C        -9.9662754377        1.2444351311        0.5357373790
 O       -10.2741429467        2.0350422155       -0.3118982830
 C        -9.0752066915        1.4513628902        1.6476155272
 C        -8.9346330394        2.9477211742        2.1049134676
 C        -8.9193084932        3.0668901943        3.6619436087
 O        -9.0033380602        2.0963336232        4.3294717027
 C        -8.7713911476        4.4318119191        4.4156225834
 C        -7.4711759970        5.2589570007        3.9568409576
 O        -7.0058656876        5.1866223335        2.8393231522
 C        -6.6922791076        6.0727743861        5.0025638203
 C        -5.7161830722        7.0558826140        4.4055027233
 C        -4.7246916296        6.4907709581        3.3218492825
 O        -4.1474438002        5.4464546110        3.3072255602
 C        -4.3685490863        7.5072192876        2.1093924076
 C        -5.7369289882        7.6457574057        1.3059953399
 O        -6.4773371128        8.4813341846        1.7658660053
 C        -6.2409821228        6.6904824416        0.1514899167
 C        -7.6734833316        6.8699203705       -0.2596236981
 C        -8.2592659284        5.6649905175       -0.9562462047
 O        -7.8010599742        4.5714321388       -0.8162325435
 C        -9.5343015526        5.9177359727       -1.9365023103
 C        -9.9822839704        4.6229484035       -2.7117167342
 O       -11.1680532560        4.3106554458       -2.9041805185
 C        -8.8507776701        3.9075062284       -3.4822836933
 C        -9.3956089752        3.0953523571       -4.6867477828
 C       -10.4203554991        1.9880257604       -4.5258487288
 O       -10.2515963606        1.1302239974       -3.6895505301
 C       -11.4929318595        1.6916111468       -5.7113844218
 C       -12.7776204024        0.9574562867       -5.0539996082
 O       -13.0370865836        1.1110166296       -3.8757905291
 C       -13.6090420010        0.1200804354       -5.9489522504
 C       -11.9168370807        3.0045705341       -6.5113190141
 C       -10.7403744429        0.8063770892       -6.7349541651
 C       -10.7278146084        6.4256790289       -1.0022361220
 C        -9.2721488916        6.9088422207       -3.0754432292
 C        -4.0364923583        8.9984965552        2.5983578798
 C        -3.2259662944        6.9259293542        1.2629541991
 C       -10.0014597319        5.3911682029        3.9479833456
 C        -8.8063378602        4.0963647624        5.9307684809
 C       -10.1376431894       -1.2626053449        1.3948075300
 C       -10.3706910568       -0.6311785716       -1.0216949458
 C       -14.6025527573        3.5454811671        2.0182083618
 C       -16.6790842216        2.7693692842        0.9127274881
 H       -16.2495537700        2.5224931761       -1.5835892905
 H       -14.7090444575        1.6616212119       -1.9754315704
 H       -14.8558475841        3.4159915449       -2.4008951255
 H       -14.3365545316        0.3520508594        3.1931262589
 H       -13.2624380681        1.6471610752        2.5750298677
 H       -13.4711677393       -1.1650027461        1.5990984966
 H       -12.1686620647       -0.4630715908        2.6781474611
 H        -8.0582801379        1.0621897042        1.5819594101
 H        -9.4269286466        0.8747127143        2.4817313677
 H        -9.7512709092        3.5214796718        1.7195144101
 H        -7.9913241625        3.4277010213        1.7899732734
 H        -6.0331678484        5.3193044778        5.5238630139
 H        -7.3867657759        6.4795628647        5.7478482892
 H        -5.0828204305        7.4330839581        5.1953178168
 H        -6.3155557814        7.8581621800        3.8515007139
 H        -6.1018604458        5.6322567772        0.4162976865
 H        -5.5227590570        6.8287191885       -0.7356761130
 H        -7.7989804836        7.6700991490       -0.9608594411
 H        -8.3350699405        7.1475239137        0.6653011535
 H        -8.2913843942        3.3122941139       -2.7393925271
 H        -8.0905752719        4.6680458525       -3.8546758663
 H        -8.5514794896        2.5855280038       -5.1339327208
 H        -9.8001080113        3.7832553249       -5.4552246427
 H       -14.4899806780       -0.3440461064       -5.5058723232
 H       -13.0995039541       -0.7334971064       -6.5005548186
 H       -13.9076786336        0.7357084531       -6.7777914411
 H       -11.1444992935        3.2177663188       -7.2568902053
 H       -11.9578624971        3.8854763235       -5.9111567245
 H       -12.8442110875        2.9275418857       -7.0674844574
 H        -9.7947042344        1.2626756969       -7.0248947905
 H       -11.4335631956        0.6759599444       -7.6049817722
 H       -10.6586527227       -0.2688983226       -6.3021394437
 H       -11.0632686483        5.5652240596       -0.3400004023
 H       -11.5656951847        6.8233307056       -1.7096475945
 H       -10.2546977692        7.1793219497       -0.3488860689
 H       -10.2174096026        6.9495301109       -3.6479199499
 H        -8.4162485009        6.6921034670       -3.7227629911
 H        -9.0878314257        7.9018460126       -2.7610229380
 H        -3.7708651250        8.9603008114        3.6698092665
 H        -4.8642007653        9.7744572227        2.4309470940
 H        -3.1403199782        9.4598578084        2.0619712329
 H        -3.4764097009        6.0658322920        0.5909837654
 H        -2.3428495258        6.6520145339        1.8953161713
 H        -2.8750648578        7.7416284959        0.5122199823
 H        -9.9890770188        6.2850531536        4.5707048587
 H       -10.9009842543        4.8746505357        4.1317970654
 H        -9.9378345921        5.5861128207        2.8678605366
 H        -8.7717202233        5.0451786879        6.4464610262
 H        -7.9604029228        3.4954714319        6.2518302381
 H        -9.6754464271        3.6772633374        6.2413152670
 H       -10.2250317754       -2.3108864537        0.9699701686
 H       -10.5079830816       -1.2054491680        2.4055958050
 H        -9.0690297910       -1.0815840073        1.5408173471
 H        -9.7812212464       -1.5329264444       -0.9259807135
 H        -9.7580530712        0.0600821962       -1.5177012514
 H       -11.2808308096       -0.8793895449       -1.5381265026
 H       -13.5888994468        3.7038941874        1.8977395822
 H       -14.8939990611        3.3674365660        3.0427172464
 H       -15.1295851985        4.4553476836        1.7257894605
 H       -16.8369789505        3.7287446433        0.4493621914
 H       -16.9667831072        2.9137583885        1.9845530319
 H       -17.2289144429        1.9625478550        0.4478670679
 Na      -12.0003888861        2.2473896777       -1.9971317338
