117

 C       -15.5313496171        2.1954950671       -1.7959807991
 C       -14.7770267629        2.1509542229       -0.4913230607
 O       -13.5708189906        2.0089297193       -0.5473848267
 C       -15.5015684689        2.1781530119        0.8965251472
 C       -15.0491426630        0.9406155958        1.7325661509
 O       -15.8175006828       -0.0082088121        1.9108644304
 C       -13.6209737694        0.8468854286        2.3335924646
 C       -12.9244571128       -0.5024988315        2.1579079324
 C       -11.9986285840       -0.4243104367        0.8487933736
 O       -12.4943916659       -0.5833098506       -0.2177783446
 C       -10.4100701953       -0.3294712909        0.9984541961
 C       -10.1096584966        1.2529682822        1.2002923643
 O       -10.5004638141        2.0846774780        0.3419763956
 C        -9.3232994878        1.8073525538        2.3500007347
 C        -9.1919226190        3.2562922999        2.5734272189
 C        -8.5743281562        3.5505254053        4.0068602194
 O        -7.8888548730        2.7251617367        4.6247335954
 C        -8.6454976757        5.0174823444        4.6153108665
 C        -8.0163190344        6.0256119382        3.5952172070
 O        -8.3391723463        6.0346366902        2.4223159363
 C        -7.1050239088        7.1262546637        4.1261207114
 C        -6.3537659219        7.9822920332        3.0342608694
 C        -5.1469247983        7.2180383410        2.5025101527
 O        -4.8877044221        6.0648983488        2.8649765754
 C        -4.2533208207        7.8080676638        1.3465290988
 C        -5.2052985089        7.8841632221        0.0988596169
 O        -5.3237946402        8.9425261572       -0.4923397960
 C        -6.0417436424        6.6065299915       -0.3051701753
 C        -7.2632690617        6.9122306754       -1.2497829252
 C        -8.1294411522        5.6794651315       -1.4451197327
 O        -7.9210894239        4.5512387885       -1.0717054846
 C        -9.5773132160        5.9536815920       -2.0989280219
 C        -9.9983114151        4.6106380622       -2.7317743259
 O       -11.0102880231        4.0806851349       -2.3694409706
 C        -9.0504114293        4.0110623245       -3.8656826436
 C        -9.8322884505        3.0979540866       -4.8654551927
 C       -10.2053812314        1.7234292394       -4.2619247547
 O        -9.8008475970        1.3728995923       -3.1895330763
 C       -11.2356334974        0.9100879368       -5.1738221959
 C       -12.7525914234        1.4063655041       -4.9185781871
 O       -13.0898031834        1.6942355413       -3.8038760863
 C       -13.8295437717        1.2621954724       -5.9607883443
 C       -10.8164685485        0.9319666362       -6.6942791719
 C       -11.3942905456       -0.5764384495       -4.5051091865
 C       -10.5293230028        6.3083331671       -0.9163785357
 C        -9.5870471439        7.1010250798       -3.1105422544
 C        -3.8131885783        9.2503699956        1.7358579416
 C        -3.0182048330        6.8925412986        1.0166806991
 C       -10.1094851936        5.4753080625        4.6398275359
 C        -8.1070483509        4.9925009282        6.0308492829
 C        -9.8939285752       -1.1243784948        2.2601432538
 C        -9.7677031800       -0.8339687323       -0.3679474636
 C       -15.1580668445        3.6076496167        1.6444422159
 C       -17.0233450349        2.1504719134        0.7492862987
 H       -16.0019446100        3.1762410505       -1.8773809160
 H       -16.2594025567        1.3913549992       -1.7712608765
 H       -14.7741187170        1.9639886719       -2.5603424433
 H       -13.7751033828        1.1724496658        3.3506735219
 H       -13.0953268468        1.6569682466        1.8910661827
 H       -13.6261726184       -1.3402766247        1.9404516675
 H       -12.3752749850       -0.8063846011        3.0638988035
 H        -8.3566584659        1.2631077392        2.2331366934
 H        -9.7937484633        1.3546119383        3.2485142402
 H       -10.1600505616        3.8119798129        2.3996208714
 H        -8.4652497429        3.7891959602        1.9155518688
 H        -6.3564421468        6.5981753471        4.6523333565
 H        -7.7301638056        7.7409965568        4.7933051870
 H        -6.0596375400        8.9646950129        3.4933860742
 H        -6.9777605126        8.1267386684        2.1748318592
 H        -6.6400594495        6.2258494229        0.5811851736
 H        -5.3714459583        5.9809403475       -0.8017888465
 H        -6.9453702637        7.3124158805       -2.2630937034
 H        -7.8845238419        7.6560290188       -0.8018947660
 H        -8.2508999632        3.4699904994       -3.3926895449
 H        -8.5847247411        4.8303226131       -4.4872261147
 H        -9.1259031888        2.9969608055       -5.7232438509
 H       -10.7458432754        3.5646198997       -5.3420679004
 H       -13.5403809320        0.6468522311       -6.8455602539
 H       -14.1622952424        2.2234394022       -6.3824841466
 H       -14.7900592045        0.9789383243       -5.6225486129
 H        -9.7115292551        0.9337771488       -6.7982621325
 H       -11.2790363486        1.8244903028       -7.1170510676
 H       -11.2177743242        0.1378023643       -7.3568486602
 H       -10.5564100341       -1.2098776472       -4.7389258561
 H       -12.3205571306       -1.0083484836       -4.8581569247
 H       -11.4465157434       -0.3908524962       -3.4220395134
 H       -10.2819135291        5.7039061362       -0.1032567020
 H       -11.5416675048        6.1523543479       -1.2241333662
 H       -10.3054135726        7.2830660463       -0.5941129954
 H       -10.5772076743        7.2479043682       -3.5833866643
 H        -8.9964772104        6.9041103342       -4.0674225031
 H        -9.1473815869        7.9890870202       -2.7021016686
 H        -3.8218988809        9.2613303053        2.8017196165
 H        -4.4857513241       10.0661214385        1.3962014827
 H        -2.8540037934        9.5528709640        1.3874757017
 H        -3.2302301240        6.1551856138        0.3496442342
 H        -2.6543628035        6.4569449501        1.9494951817
 H        -2.2893640321        7.5289949600        0.5681122870
 H       -10.2693715023        6.6139828833        4.8292314387
 H       -10.7100921108        4.9462770866        5.4071856201
 H       -10.6443153710        5.3486903270        3.6638388034
 H        -7.0227643570        4.6801022667        6.1592891392
 H        -8.8343543320        4.4716282589        6.6925873395
 H        -8.1648204975        6.0428478871        6.4010540937
 H       -10.7392424663       -1.6204271926        2.8056247547
 H        -9.4055933690       -0.5495305166        3.0272620329
 H        -9.1089910419       -1.7864590107        1.9590707117
 H       -10.0858095127       -1.9064654815       -0.4927009172
 H        -8.6802267550       -0.6975344814       -0.2948324699
 H       -10.2386814559       -0.3269257641       -1.2223607801
 H       -14.1201408624        3.7002706310        1.6953807317
 H       -15.5456362363        3.5941269104        2.7173043429
 H       -15.6538980379        4.4532083793        1.0704530697
 H       -17.4312222016        2.5564183753       -0.1238874217
 H       -17.5391514420        2.7581726501        1.5163141783
 H       -17.5029602435        1.2125486344        0.8378885519
 Na      -11.7436848294        1.6317651381       -1.6773170236
