117

 C        -9.7549005682       -6.4704377928        3.2946053176
 C        -9.9942215512       -5.4405537596        2.1879197458
 O       -10.2305583924       -5.8749344337        1.0920029274
 C        -9.7908609244       -3.8031365124        2.3226159022
 C       -10.6805321215       -3.0145483840        1.3445920222
 O       -10.2599599914       -2.0349164794        0.6626529138
 C       -12.1831455826       -3.4608575999        1.1849565728
 C       -12.6018044369       -3.4588324725       -0.2533432315
 C       -12.4297698972       -2.1259219453       -1.0255586302
 O       -11.9655651396       -2.1758712719       -2.1415624158
 C       -13.0145564142       -0.7632890189       -0.4750474185
 C       -11.6438175864       -0.0007086623       -0.0768897072
 O       -11.4503587274        0.2642546566        1.1155823388
 C       -10.8110351954        0.5130127359       -1.1992683785
 C        -9.3953892260        0.9226058753       -0.6969229608
 C        -9.0779373287        2.2986178233       -1.2240121429
 O        -9.1648414114        3.2533064047       -0.4952048208
 C        -8.8575643232        2.5510272270       -2.7579142649
 C       -10.0721113854        3.3608487670       -3.3328266643
 O       -11.1719501125        3.4435645824       -2.7814372885
 C        -9.7607432576        4.2324450157       -4.7006835208
 C       -10.6352485484        5.4883886213       -4.6583224259
 C       -10.1642649764        6.4701225681       -3.4178433520
 O        -9.2427497932        5.9397552701       -2.7922264425
 C       -10.9694452157        7.7438977245       -2.9526030812
 C       -10.2463380978        8.5095953804       -1.8479300765
 O        -9.6358516833        7.8535641299       -1.0131990332
 C       -10.3067428813       10.0166222743       -1.8178741179
 C        -9.6024124174       10.6292262329       -0.5963642798
 C       -10.4698941066       10.4343210490        0.6519753720
 O       -11.6475720132       10.0487192250        0.6543661456
 C        -9.8163461345       10.7979398499        2.1032051999
 C        -8.7673064168        9.6963377478        2.3682766421
 O        -7.7708074335        9.6769708503        1.6863996428
 C        -9.1716936059        8.5354227548        3.2939667662
 C        -7.9321856785        7.5438241000        3.4685766312
 C        -7.8141046799        6.4130289055        2.4882095869
 O        -8.7741863160        5.8952633579        1.9221641969
 C        -6.5029283007        5.5458174418        2.4265031861
 C        -6.0060496535        5.8374329086        0.9082854572
 O        -6.7044504652        6.1167481857       -0.0283769953
 C        -4.4962344691        5.8209699134        0.7023474703
 C        -5.4424983460        5.9356143566        3.4686507689
 C        -6.7692442908        4.0400939706        2.3994829115
 C        -9.0191658380       12.1176933658        2.0641697143
 C       -10.8669322728       10.8798590458        3.2685324922
 C       -11.3363316756        8.5444224713       -4.2479752975
 C       -12.2261689043        7.2285338767       -2.1858983471
 C        -7.4507854748        3.2265067577       -2.8134182161
 C        -8.7892599734        1.2310017980       -3.5710325085
 C       -13.6649010552        0.1409724629       -1.5483734399
 C       -13.8756819856       -0.7747089495        0.7933145356
 C       -10.1342658662       -3.3596309626        3.7705148651
 C        -8.3085477598       -3.5640797079        2.1559187454
 H        -8.8149967383       -6.1950677749        3.8567625323
 H        -9.7553969881       -7.4355420697        2.8335164474
 H       -10.5841778813       -6.4502239614        4.0072346038
 H       -12.9072115934       -2.7375176656        1.7328452451
 H       -12.4513466471       -4.4335598170        1.6516236970
 H       -13.6748345226       -3.8157005597       -0.3182853132
 H       -12.0298932860       -4.1915873713       -0.8038335813
 H       -11.4470409807        1.3470888093       -1.4991409301
 H       -10.7217826258       -0.2148974010       -2.0023353128
 H        -8.7903344688        0.0026620261       -0.8756952048
 H        -9.4336172795        1.0040814356        0.4109646019
 H        -9.9665196961        3.7043745299       -5.5929087560
 H        -8.7583317277        4.6474900620       -4.7240514312
 H       -11.6082468090        5.1512698005       -4.4308378441
 H       -10.5613699553        6.0284221094       -5.5501947777
 H       -11.2608369267       10.4891857427       -1.8267432804
 H        -9.9545256135       10.2915506566       -2.7485205768
 H        -9.5261957950       11.7099855697       -0.7240861311
 H        -8.5210769775       10.2990251969       -0.3595831858
 H       -10.0832012185        7.9634850778        2.9480286320
 H        -9.3126625392        8.9761987120        4.2943029737
 H        -7.9422794425        7.0888779741        4.4626479343
 H        -7.1081141302        8.1976077718        3.5607149719
 H        -4.0632042838        6.8377796147        1.0782065371
 H        -4.1339930366        5.6764447706       -0.2471826120
 H        -4.0789293699        5.0077246231        1.3099487641
 H        -5.8374377995        6.0687518308        4.4915551321
 H        -5.0256741745        6.8903418887        3.2203480675
 H        -4.6746784426        5.2044026542        3.5209692005
 H        -6.0689093320        3.5963208311        1.6887723869
 H        -7.7668412143        3.8396461436        1.9142785596
 H        -6.6672654879        3.6532806619        3.4381315320
 H        -8.2812187156       12.1218785433        2.8637241776
 H        -9.5692041469       13.0409268171        2.1530366759
 H        -8.3431832023       12.0696698341        1.2169560273
 H       -10.4438491298       11.3788184701        4.1642982318
 H       -11.1148600420        9.9032791628        3.4951957332
 H       -11.7195347826       11.4239168377        2.7868177270
 H       -12.1571701994        8.0876773175       -4.8211019733
 H       -10.5290513730        8.5597884859       -5.0260268359
 H       -11.5667185767        9.6196481821       -4.1624971018
 H       -12.8226968820        6.5245621598       -2.8422831956
 H       -12.7743842214        8.1327444672       -1.8095268776
 H       -12.0153899093        6.7107746990       -1.2341098075
 H        -6.9876909517        3.1896624362       -3.7712312718
 H        -6.8201356966        2.6100868092       -2.1539379622
 H        -7.4065503241        4.2882338162       -2.5315685848
 H        -9.8441065233        0.9053358856       -3.6621618679
 H        -8.2266145724        0.3844482474       -3.0099466191
 H        -8.4868503673        1.3399347420       -4.5876242512
 H       -14.7333785297        0.0835506689       -1.5256953484
 H       -13.1924328818       -0.0630062217       -2.4969726949
 H       -13.4812560361        1.2143496821       -1.3843797337
 H       -14.4798692955       -1.6712186575        0.8406170279
 H       -14.6791950182       -0.0019110830        0.7424158125
 H       -13.2895710627       -0.7329567298        1.7357096718
 H       -11.1860342342       -3.5234685234        3.9852703635
 H        -9.9278984786       -2.2923183535        3.9346023735
 H        -9.5970957119       -3.9360006193        4.4691695973
 H        -7.8671139083       -2.7197251859        2.7169044542
 H        -8.2353359061       -3.4880455402        1.0516344262
 H        -7.7488717059       -4.3859167340        2.5359795161
 Na       -8.8952340061        5.6013608677       -0.5332045226
