117

 C        -8.7467000455       -5.2945554938        4.0530744611
 C        -7.2160249181       -5.0521993506        4.2966347744
 O        -6.4900970522       -5.0704214881        3.3414855284
 C        -6.6932049395       -4.6565143049        5.7249345706
 C        -6.5099784724       -3.0732582603        5.9128740152
 O        -5.6691717449       -2.6070520779        6.6435023279
 C        -7.3366665942       -2.0967087007        4.9930916647
 C        -7.4031226550       -0.7459280567        5.7568390726
 C        -8.0359526411        0.3937082913        4.9731651707
 O        -8.9430115690        0.4211641548        4.1551574315
 C        -7.4156201205        1.9148971075        5.2571503659
 C        -7.2101633561        2.4839447795        3.7242243089
 O        -6.1602367864        2.7355276787        3.2604239530
 C        -8.4645713063        2.9711417682        2.9652190926
 C        -8.1617160713        3.0445857729        1.4607502826
 C        -9.2934732182        3.2635443302        0.3840268865
 O        -9.3414816735        4.3692582503       -0.0631003889
 C       -10.4199363494        2.2605011680        0.0765937469
 C       -11.7262768374        2.9346917265        0.5843067953
 O       -11.7936044340        3.3724337154        1.7042480507
 C       -12.9740697171        2.8184226497       -0.2699277404
 C       -13.9572188434        3.9271433962        0.0784997099
 C       -13.4853882431        5.2567545292       -0.5382173985
 O       -12.4085778836        5.7363636658       -0.1728566590
 C       -14.2531685677        5.8531399461       -1.7113477524
 C       -13.3285839227        5.7572854889       -3.0272944823
 O       -12.1332916715        5.4057768120       -3.0074661976
 C       -14.0321486622        5.6228808622       -4.4042557827
 C       -13.2970039532        6.3701843120       -5.5182622014
 C       -12.9381542339        7.8406715711       -5.0761702381
 O       -13.0751233801        8.1357855381       -3.9073072124
 C       -12.2781221033        8.6422584614       -6.1600976826
 C       -10.6758148936        8.6670163684       -5.6370853327
 O        -9.9293608754        7.9287445399       -6.2588560488
 C       -10.1910169525        9.6279913813       -4.5536277254
 C        -8.7611293063        9.2126976446       -4.0114457184
 C        -8.8514196626        8.2828207963       -2.8559862373
 O        -9.8637652831        8.1023820099       -2.2703414000
 C        -7.5396791502        7.4846953061       -2.2947135498
 C        -7.5674589602        6.0561429604       -3.0867599907
 O        -8.3711105091        5.2016891833       -2.7927063243
 C        -6.7784899135        5.8580218132       -4.2937649265
 C        -6.1662394013        8.2050160780       -2.3634091462
 C        -7.7707289621        7.1930405479       -0.7634480064
 C       -12.1385763924        8.0620828700       -7.5356892663
 C       -12.8511804973       10.1251806732       -6.0719324874
 C       -15.5539996938        5.0875879685       -1.9876398614
 C       -14.4373099063        7.3290125963       -1.4771907561
 C       -10.4082716300        1.9802131863       -1.4551193342
 C       -10.3451738245        0.9010917915        0.8574647189
 C        -8.4317641929        2.7222569606        6.1213515430
 C        -6.0885373032        2.0234521027        5.9584836387
 C        -7.5287834626       -5.3208829600        6.8387998475
 C        -5.1739329611       -5.0881804513        5.7276138212
 H        -8.7989526114       -6.1837521289        3.4392127313
 H        -9.1391546780       -4.4876785360        3.4941770857
 H        -9.4521789432       -5.4642548655        4.8868704606
 H        -8.3341300150       -2.5181947500        4.7971103482
 H        -6.8549749973       -2.2066461557        3.9905575471
 H        -6.3988438229       -0.5963382596        6.1257463001
 H        -8.1556297722       -0.9536706950        6.6311112868
 H        -8.7745013003        3.8882917648        3.5182244013
 H        -9.3264987151        2.2362189670        3.0975606279
 H        -7.6430886214        2.1647390691        1.0881830762
 H        -7.4880738073        3.8753543321        1.2897925191
 H       -13.4437893782        1.8767399045        0.0837667113
 H       -12.6764554802        2.6983637668       -1.3628463560
 H       -13.9565879363        3.9749558253        1.1168546779
 H       -14.9041590372        3.6957708763       -0.3712428313
 H       -15.1123811608        5.9806265773       -4.3082681232
 H       -14.1230400538        4.5214072512       -4.5364834950
 H       -13.9564899946        6.1160058094       -6.4357042839
 H       -12.2761382587        5.8860834860       -5.6370402405
 H       -10.8899450405        9.7798910631       -3.7494574270
 H       -10.0177164609       10.6435224247       -5.0436951216
 H        -8.1054414256       10.0957106621       -3.8406912271
 H        -8.3687973087        8.6066019989       -4.8684507390
 H        -7.1963509585        6.2595121819       -5.1910775684
 H        -6.8602255437        4.7749039207       -4.4003574369
 H        -5.6707353915        6.0166511304       -4.1501164599
 H        -6.3123857967        9.1300382182       -1.7681149915
 H        -5.8387920528        8.5890695018       -3.3699361057
 H        -5.3696870843        7.6426069286       -1.8615690227
 H        -8.7934405653        6.9440416566       -0.5411888485
 H        -7.6776629209        8.2115966971       -0.2731148782
 H        -7.2881787694        6.3508568196       -0.4106171821
 H       -11.6062545180        7.0900611104       -7.4478120932
 H       -11.5908252571        8.7356379550       -8.1852524851
 H       -13.0355513966        7.8840627384       -8.0324684293
 H       -12.4275120738       10.6307063466       -6.9095504694
 H       -12.7739844333       10.5925703785       -5.1292425270
 H       -13.8845116723        9.9965165707       -6.2969557399
 H       -16.1938463831        5.0342454323       -1.1444029266
 H       -15.3513574821        4.0777966346       -2.3231584216
 H       -16.1624551011        5.5576527872       -2.6434807070
 H       -15.0898476524        7.3856008148       -0.6800245136
 H       -14.8492008061        7.8806253959       -2.3323998374
 H       -13.5435662542        7.7889508278       -1.0768634817
 H       -11.3805095641        1.3923938626       -1.7821693557
 H        -9.5476368316        1.4251152502       -1.7806436414
 H       -10.3177726372        2.8976730183       -2.0628617278
 H       -10.4483495131        0.9880514878        1.9428761961
 H        -9.3820857482        0.4830967227        0.5928028350
 H       -11.2681545321        0.3441482985        0.4754715930
 H        -8.8695981504        2.1039415490        6.9160867852
 H        -9.2425529791        3.0390203377        5.5305133996
 H        -8.0011356864        3.6785917446        6.5639776696
 H        -6.1151999745        1.4586986896        6.9020866673
 H        -5.9724100793        3.0402206088        6.2459968017
 H        -5.2207446498        1.6119326430        5.3711609865
 H        -8.4603880657       -4.7761155849        6.9259530137
 H        -6.9365404779       -5.3647094743        7.7859493549
 H        -7.7627712652       -6.3166762621        6.5078546722
 H        -4.6940358999       -4.6475764241        4.8614038809
 H        -4.9198394269       -6.1078846690        5.6416917420
 H        -4.7447910879       -4.6601219425        6.6009316693
 Na      -10.3940954921        5.7977920029       -1.6931299724
