117

 C       -13.3746101078        9.6858277800       -1.5111709691
 C       -13.5305913946        8.1925596878       -0.9528382825
 O       -14.5632811722        7.5573471713       -0.9008315448
 C       -12.3123583227        7.4877119860       -0.3593932801
 C       -12.6159702018        7.2881872672        1.1852907628
 O       -12.2400807655        6.4340389197        1.9329648041
 C       -13.3892331297        8.4689428832        1.7659010965
 C       -13.3194560957        8.8139424590        3.2849106503
 C       -14.5192683143        8.3615199546        3.9776749639
 O       -15.5805896442        8.7993802815        3.5447087208
 C       -14.2969683090        7.7745751548        5.4141000933
 C       -14.0554056325        6.2925055595        4.9962625817
 O       -12.8917822696        6.0134548369        4.8417529836
 C       -15.2847212117        5.4252462733        4.7617381418
 C       -14.9223626540        3.9970936611        4.9363773833
 C       -13.9093783360        3.3399621556        3.7331640128
 O       -13.6104517585        4.0188778278        2.7198228286
 C       -13.3239635913        1.8755227137        3.8757961932
 C       -11.9276909465        1.8747168054        3.2435716927
 O       -11.0454041772        2.4786613540        3.8198029906
 C       -11.6433112878        1.2863515831        1.9858892069
 C       -10.2619147670        1.4360041693        1.3449308778
 C        -9.7745813565        2.8864267833        1.0519301549
 O       -10.3143513727        3.9768521629        1.1219677658
 C        -8.2204036103        2.9815716012        0.5363764598
 C        -8.1927883790        2.4217119096       -0.9540794785
 O        -8.6763332953        1.3527144894       -1.2101319170
 C        -7.6327295486        3.2521716021       -2.1642021519
 C        -7.1731250816        2.1822375442       -3.1932979903
 C        -7.2013975655        2.6292114778       -4.6919758125
 O        -8.2856932567        2.7450772605       -5.2506180616
 C        -5.8403582951        3.0744222661       -5.4100001730
 C        -4.7327371661        2.0385662493       -5.2917964089
 O        -3.6986240099        2.3107492985       -4.6394616431
 C        -5.0324783279        0.8196010185       -6.2126318643
 C        -4.0833039913       -0.3498554313       -5.7566617036
 C        -4.7883484064       -1.5638307044       -5.0569500342
 O        -5.8532117793       -1.2624148928       -4.5409046403
 C        -4.1370596556       -2.8389706915       -4.9014568854
 C        -3.5506560989       -3.1254502526       -6.3791600139
 O        -2.4303067351       -2.7478377214       -6.6823329697
 C        -4.5369587654       -3.8490177637       -7.3689302097
 C        -3.0736791509       -2.6537838142       -3.8152816712
 C        -5.1001281368       -3.9651776877       -4.3511299976
 C        -6.2430693480        3.2718257282       -6.8612044002
 C        -5.4281521032        4.4419253911       -4.9378423495
 C        -7.8055284136        4.4710358495        0.6762484608
 C        -7.2199374133        2.1149538379        1.3645320381
 C       -13.1080219221        1.6011903910        5.3750123081
 C       -14.3216234060        0.8602152645        3.2479963776
 C       -13.1415741738        8.5688447819        6.2081910238
 C       -15.5728939325        8.1009950289        6.2173899799
 C       -12.2545865822        5.9903925232       -0.9470770627
 C       -10.8791185581        8.2690898534       -0.2440687295
 H       -13.4650735032       10.4958943354       -0.8318413190
 H       -14.1125951367        9.6596242747       -2.3559164719
 H       -12.5066229548        9.7422279900       -2.1282377373
 H       -14.3776825509        8.3117223073        1.4657364891
 H       -13.0220010214        9.3903646164        1.2393280006
 H       -13.1057996110        9.9009627831        3.5043342051
 H       -12.5055939631        8.2631138920        3.7530736004
 H       -15.8842961379        5.5868479968        3.8433999396
 H       -15.8121366457        5.5987693341        5.7247489945
 H       -15.8065220243        3.4236943272        5.2533390753
 H       -14.2356474589        3.9364059586        5.7973570239
 H       -12.2254285242        2.0344772428        1.5172328818
 H       -11.8715869471        0.2101995536        1.9073883857
 H       -10.2239180153        0.7704115400        0.4793731873
 H        -9.4796717854        0.9276886359        2.0305287802
 H        -6.6788320162        3.8383962448       -1.8397669496
 H        -8.4218980406        3.8876972879       -2.5573664513
 H        -7.8896298483        1.2688497873       -3.1281039017
 H        -6.1582415293        1.6380105372       -2.9464221343
 H        -4.6886174307        1.0706999789       -7.1512982213
 H        -6.0870721629        0.5326561868       -6.3550382483
 H        -3.4988518793        0.1702436940       -5.0121953933
 H        -3.3096390674       -0.6024489782       -6.4608118887
 H        -4.6898702182       -4.9469962569       -7.1040972184
 H        -4.0868197077       -3.9001390000       -8.3810233075
 H        -5.5586975393       -3.5917541894       -7.4240367430
 H        -2.3489125735       -3.4422637198       -3.4887058991
 H        -3.4022500072       -2.4228725446       -2.8480175916
 H        -2.4873413064       -1.7778164793       -4.0424317934
 H        -4.2988411062       -4.5800926580       -3.9467063927
 H        -5.7854033386       -4.3025431176       -5.0621827266
 H        -5.7947442356       -3.6181672048       -3.5978786354
 H        -6.7463900057        4.2344662520       -7.0076334964
 H        -7.0146027144        2.4894546880       -7.2597982652
 H        -5.3636267174        3.2751899447       -7.5275997281
 H        -5.4196373032        4.4012792551       -3.7857182060
 H        -6.2737773267        5.0014543208       -5.1175048618
 H        -4.5829437360        5.0208137396       -5.2346071911
 H        -8.2466538484        5.0188138135       -0.1897499661
 H        -6.7325107832        4.5632725410        0.6813801746
 H        -8.0229365256        4.6330461815        1.7054140965
 H        -7.2402655322        1.0811997769        1.0332225435
 H        -7.6361890768        2.0422425378        2.4269335489
 H        -6.2227470610        2.6463141644        1.4108246936
 H       -13.8147727027        2.0733782895        6.0347176639
 H       -12.1042020346        2.0152098938        5.7116481530
 H       -13.0492656325        0.5489786570        5.5411188039
 H       -15.2884115923        1.1619314242        3.5017207445
 H       -14.2362172584       -0.0532776115        3.8013598574
 H       -14.0390019714        0.7889199688        2.2319178850
 H       -13.3070792297        8.1204315660        7.1963637682
 H       -13.3294550967        9.5897861522        6.0368676173
 H       -12.2237910526        8.1648685216        6.0077765653
 H       -15.8412297786        7.4518495247        6.9750397548
 H       -16.4877221501        7.9127572826        5.5546627188
 H       -15.2616441047        9.1381689390        6.5974877096
 H       -12.0480239015        5.8940282435       -2.0143303105
 H       -13.2333861873        5.6096551514       -0.7312894518
 H       -11.5071732451        5.5107053067       -0.3917295837
 H       -10.1966479436        7.4613486117       -0.0176676420
 H       -10.7526372132        9.1299024109        0.4314558671
 H       -10.4850811495        8.5755050712       -1.2350273241
 Na      -11.3856706929        4.6164852724        3.3299533070
