117

 C       -13.1305274354        9.7979194012       -1.7514132190
 C       -13.4483019824        8.4111308289       -1.1253610856
 O       -14.4520257060        7.7958006481       -1.4503372527
 C       -12.3121511207        7.4729177301       -0.5196730979
 C       -12.6459727029        7.3916865050        1.0868081388
 O       -12.0464538037        6.5942029885        1.7851727499
 C       -13.6437683330        8.3499053525        1.7500063835
 C       -13.3663470440        8.7557155129        3.2806059409
 C       -14.6044987627        8.5868769339        4.1623736273
 O       -15.6766653733        8.8807298395        3.6847100424
 C       -14.3569609453        7.8213383030        5.5965056684
 C       -13.9454293518        6.4406734492        5.0719546744
 O       -12.7335227357        6.2166965283        4.9974819087
 C       -15.0835843522        5.3979297866        4.6708967277
 C       -14.6653155504        3.9156862478        4.9954633302
 C       -13.7768441957        3.3998747575        3.9635001614
 O       -13.5949222562        3.9340809299        2.9189566575
 C       -13.2294293628        1.9075456230        4.0887044373
 C       -11.9409249934        1.9764411538        3.2569403472
 O       -11.0167228595        2.7321884466        3.6214126369
 C       -11.8077394012        1.3275577490        1.7946054878
 C       -10.3695369889        1.5538814480        1.1716720467
 C        -9.7489371381        2.9384760339        0.8629277927
 O       -10.2844140328        4.0178846373        1.1731880257
 C        -8.2822741261        3.0194242872        0.3972352658
 C        -8.2842307028        2.3276046116       -1.0407897041
 O        -8.9135338714        1.2930884113       -1.2108641968
 C        -7.6576296171        3.0725607487       -2.1821914847
 C        -6.9035757804        2.2669346945       -3.2158616896
 C        -7.2090395258        2.7278033469       -4.6807221966
 O        -8.3245657517        2.9664865711       -5.0181996227
 C        -5.8607438657        3.0931831467       -5.5471918294
 C        -4.6256008793        2.1032123290       -5.3068834640
 O        -3.7474763550        2.4667977803       -4.5846254840
 C        -4.7988634817        0.7485720952       -6.1862757778
 C        -4.1038222865       -0.5441858031       -5.6252969284
 C        -4.9336762290       -1.5145742998       -4.9278264663
 O        -6.0885918537       -1.2544772137       -4.6706989475
 C        -4.2713197641       -2.9344866242       -4.6237336351
 C        -3.6127518319       -3.5359567204       -6.1039247908
 O        -2.4211383080       -3.5832775005       -6.1925495523
 C        -4.5601100332       -4.1789322275       -7.1112553580
 C        -3.1631328942       -2.6980413309       -3.7169092340
 C        -5.4057509500       -4.0385463025       -4.2051190896
 C        -6.1679081439        3.2587349448       -7.0022619253
 C        -5.4760186321        4.5274180099       -4.8254514609
 C        -7.5749217571        4.5249131949        0.4155961964
 C        -7.4649896406        1.9755889211        1.2614097394
 C       -12.9310456374        1.5402068573        5.5360240163
 C       -14.3958731078        1.0292574467        3.6602327375
 C       -13.1961574204        8.4653988140        6.4424353526
 C       -15.7554138648        7.7412709945        6.2379824145
 C       -12.2922414513        6.0064033842       -0.9997257072
 C       -10.8257105970        7.9683460759       -0.6318281202
 H       -13.1006413152       10.4625117989       -0.8864884254
 H       -13.6894571585       10.1312912180       -2.5667719170
 H       -12.1013921997        9.7450622248       -2.0778268076
 H       -14.6329163985        7.7095960350        1.8231823048
 H       -13.8542189856        9.2395632573        1.1822520384
 H       -13.3607481405        9.8459093050        3.3014480688
 H       -12.3982839273        8.4248858773        3.7083483972
 H       -14.9877390307        5.4170539110        3.6014470350
 H       -16.0211385825        5.6637649419        5.0706376860
 H       -15.3866732029        3.1100095009        4.8171662621
 H       -14.2552835019        3.7234501865        5.9613895784
 H       -12.5121598840        1.7819622356        1.0280880107
 H       -11.7666153974        0.2996394929        2.0443803231
 H       -10.5118877263        1.1922492038        0.1487850406
 H        -9.6968840582        0.8396589442        1.5222536489
 H        -6.9999097671        3.7549346839       -1.7500777968
 H        -8.5617655765        3.6034568284       -2.6271731462
 H        -7.0914130161        1.2655516237       -2.8759252611
 H        -5.8619669489        2.3554439679       -3.1961949778
 H        -4.4171041160        0.9229075624       -7.2907517330
 H        -5.8793901338        0.5291382352       -6.3077315586
 H        -3.3262534264       -0.1184751287       -4.9639313764
 H        -3.5427479800       -1.1738206695       -6.3523767739
 H        -4.2014100529       -4.9375839930       -7.6733610212
 H        -4.8764065561       -3.4603671205       -7.9474590699
 H        -5.3248990383       -4.6835957269       -6.5671531113
 H        -2.4756143639       -3.5364958993       -3.7090481700
 H        -3.2393703577       -2.6926100032       -2.6038807513
 H        -2.4998476678       -1.8518752451       -3.8955843975
 H        -4.9124116741       -5.0364144060       -4.0129982188
 H        -6.2297720132       -3.9076165726       -4.9601403919
 H        -5.9582088181       -3.6981142918       -3.3213853814
 H        -6.8633698041        4.0525338611       -6.9940976470
 H        -6.7072440539        2.4318560652       -7.2914513999
 H        -5.4096297098        3.2428497133       -7.7998392778
 H        -5.6438986691        4.6186168300       -3.8063502400
 H        -5.9247552155        5.4020932748       -5.4046887822
 H        -4.3912159356        4.6702746463       -4.9589215531
 H        -8.0925535761        5.1425280035       -0.2800519064
 H        -6.5428295550        4.3889855175       -0.0260131137
 H        -7.3459074509        4.7193567492        1.4440848423
 H        -7.9138377147        0.9735007052        1.2809332883
 H        -7.4184018115        2.2962409745        2.2843211242
 H        -6.5024053393        2.0414745242        0.8683810009
 H       -13.9449439118        1.4533712415        6.0159007188
 H       -12.4160579979        2.2876318796        6.1146058791
 H       -12.3266295429        0.5995933338        5.6822360213
 H       -15.1013822500        1.1772736398        4.4862577485
 H       -14.1404014887       -0.0802343402        3.7903184340
 H       -14.8416414836        1.2683866688        2.6863535295
 H       -13.1420778553        7.9937472757        7.3963404181
 H       -13.5983540609        9.4675382171        6.3473367699
 H       -12.2189486465        8.3048543762        5.8422772181
 H       -15.9118192840        6.7672749709        6.7721787025
 H       -16.5148874124        7.6656728481        5.5848434679
 H       -15.7342445522        8.5034223401        6.8985916572
 H       -11.9267089582        5.8897954827       -2.0080866811
 H       -13.3389433259        5.7030749056       -1.0007693953
 H       -11.6192760648        5.4909662037       -0.2371408015
 H       -10.2336733882        7.8291009392        0.2801990236
 H       -10.9039246325        9.0098886851       -0.8703138630
 H       -10.1606596668        7.5360101588       -1.3661321710
 Na      -11.2596561268        5.0131712149        2.9166399802
