117

 C       -12.7311807538        9.9975760338       -2.1063583493
 C       -13.2722891165        8.6549862778       -1.7317506357
 O       -14.3304666462        8.1927820849       -2.0799121296
 C       -12.4150974658        7.5974621265       -0.6075894822
 C       -12.5567551583        7.7728182044        0.9403886299
 O       -11.5357558134        7.4691056949        1.5833043528
 C       -13.8699162356        8.4270995400        1.5652397321
 C       -13.6545355390        8.6575034712        3.0638107254
 C       -14.8201181034        8.5311896198        4.1118346544
 O       -15.8538364989        9.1267443660        4.0501601136
 C       -14.3391182958        7.8642972763        5.5278000911
 C       -13.8864031295        6.5112554719        5.1653856788
 O       -12.6706174813        6.2995765994        4.9138419239
 C       -15.0914530270        5.3162962443        4.8119247618
 C       -14.6591893275        3.8670769663        5.1417948463
 C       -13.5885038765        3.3541623217        4.0389116364
 O       -13.3801322634        3.9935371591        3.0284723085
 C       -12.8680374955        1.9506872074        4.1706646702
 C       -11.7202885764        2.1554672782        3.2245157230
 O       -10.6488782418        2.5365141437        3.6695101809
 C       -11.9390303977        1.9343951512        1.6970088417
 C       -10.6224006251        1.5301492595        1.1217820478
 C        -9.7773270747        2.8514812697        0.8718103625
 O       -10.2802292754        3.9332364401        1.1762393791
 C        -8.4209024465        2.7692237203        0.2344114093
 C        -8.4554869958        2.1589082114       -1.2332704908
 O        -8.8798879221        1.0113604184       -1.2911854516
 C        -7.8191363684        2.9931747478       -2.3287923722
 C        -6.8266615303        2.3324490348       -3.2679489079
 C        -7.0201676390        2.9906597291       -4.6838125965
 O        -8.1176170841        3.1809847170       -5.1440186711
 C        -5.7167798231        3.2304474584       -5.5701804586
 C        -4.7367745152        1.9910171434       -5.4144562990
 O        -3.9761134713        2.1127871449       -4.5153503977
 C        -4.7912560126        0.6919022522       -6.0912454178
 C        -3.9888864211       -0.4400217329       -5.3567155695
 C        -4.9878212461       -1.6002996549       -5.0689543572
 O        -6.1953973031       -1.4792534248       -5.1125032789
 C        -4.4202169643       -3.0334939814       -4.3131927317
 C        -3.8292959533       -4.0998099201       -5.4623490869
 O        -2.7766155222       -4.7193992235       -5.4457742049
 C        -4.6756315340       -4.3885350332       -6.7277064436
 C        -3.3888082654       -2.8389284514       -3.1765127298
 C        -5.6768596058       -3.7549092102       -3.7141787486
 C        -6.2618512225        3.2823186706       -7.0521515979
 C        -5.0349025293        4.4380519620       -5.1808537110
 C        -7.8945057697        4.2866444422        0.4133917433
 C        -7.4382043742        1.7346505163        1.1314599493
 C       -12.4353051121        1.5671928436        5.5460666483
 C       -13.8165817297        0.7748676706        3.7677381699
 C       -13.1683374906        8.6789368821        6.4891174712
 C       -15.6700570576        7.8182444705        6.4073212519
 C       -12.7215797837        6.1077565667       -0.9416892440
 C       -10.8681480148        7.7461265801       -0.9118595331
 H       -11.9276538259       10.2308217696       -1.3791065042
 H       -13.5159941236       10.6670827063       -2.1225936228
 H       -12.3664774131        9.8993712036       -3.1407437474
 H       -14.6220684029        7.6719656287        1.4348799360
 H       -14.1603530383        9.3904640056        1.1494486155
 H       -13.3266184529        9.6720178915        3.2012933773
 H       -12.8463520005        7.9553449571        3.4521543158
 H       -14.9512854774        5.3184082826        3.7149169477
 H       -16.1467135712        5.4739834888        5.1712459466
 H       -15.4825360064        3.1598184201        5.0784960490
 H       -14.1463912343        3.7075683323        6.1199548440
 H       -11.9135352905        2.9417405499        1.2406154057
 H       -12.7064239187        1.2124855637        1.5010196613
 H       -10.8451334298        1.2432146941        0.0390836122
 H       -10.2178528888        0.6607127609        1.5108068682
 H        -7.3333312283        3.8878463138       -1.9890699532
 H        -8.7600577949        3.3154016048       -2.8976465330
 H        -7.1462333509        1.2137556964       -3.5497111834
 H        -5.8214030626        2.1925516397       -2.7750077655
 H        -4.5621307722        0.6619133870       -7.1741434650
 H        -5.8171625399        0.4103030508       -6.1275732004
 H        -3.6026176946       -0.2167651989       -4.3707160182
 H        -3.2182522333       -0.8974320118       -5.9110426577
 H        -5.0103037984       -3.6025540828       -7.2657807119
 H        -5.7007235285       -4.7252622090       -6.4727159932
 H        -4.1499061367       -5.0750813970       -7.3963685707
 H        -3.3655143674       -3.4918761086       -2.3665192352
 H        -3.5057097390       -1.9089679220       -2.5385770664
 H        -2.2995048174       -2.8082024057       -3.4287021110
 H        -5.4603437968       -4.7707669936       -3.9357010914
 H        -6.5453485680       -3.5455273083       -4.4429780506
 H        -5.8930988336       -3.5790043156       -2.6374317143
 H        -7.4119440396        3.2148671452       -7.0942339237
 H        -5.6808722316        2.7484986450       -7.7374035453
 H        -5.8926765321        4.2086535047       -7.4854350067
 H        -4.4754238088        4.2153953548       -4.3556305059
 H        -5.8535711869        5.2049844778       -4.9478634083
 H        -4.3750139883        4.9171538465       -5.8835628084
 H        -8.5051206678        4.8728016802       -0.2915174582
 H        -6.8250802565        4.3766628580        0.1378842909
 H        -8.1706749370        4.5602429245        1.4919585587
 H        -7.8464815731        0.6631419320        0.9852777608
 H        -7.4175020859        2.1384094712        2.1408466495
 H        -6.4026121451        1.8536913363        0.7145195006
 H       -13.1501912529        1.0206237808        6.1453165404
 H       -12.0822492665        2.3138752868        6.1575750648
 H       -11.5041201768        0.9381374814        5.4672664425
 H       -14.7019732272        0.7354800968        4.4033590852
 H       -13.2945188032       -0.1410893701        3.6912291327
 H       -14.2364286404        1.0933192557        2.8713120796
 H       -13.0664123670        7.9858400344        7.2149356771
 H       -13.7951598948        9.4783249738        6.8750246423
 H       -12.3404072086        9.0013818711        5.8832125020
 H       -15.4750577912        7.5056443857        7.5530153574
 H       -16.3817257580        7.1062892728        5.9473956628
 H       -16.1190440732        8.8206115209        6.4525344021
 H       -12.3922968959        5.9530131691       -1.9355516503
 H       -13.7521792032        5.8223419460       -0.8604193657
 H       -12.0764957134        5.5516189486       -0.2808906642
 H       -10.1894672009        6.8910181299       -0.9837852883
 H       -10.4463001056        8.5162208588       -0.2573629554
 H       -10.7862086021        8.2303502601       -1.8749208569
 Na      -11.6248547233        5.2736904182        2.9393425607
