117

 C       -12.6506649682        9.9442213841       -2.1442123523
 C       -13.2564400830        8.6578738267       -1.6387872815
 O       -14.2838972876        8.3214248497       -2.2139223090
 C       -12.3807827498        7.7313641497       -0.6929201990
 C       -12.4969205029        7.9303561971        0.9819128885
 O       -11.5949088318        7.5754404781        1.7269549547
 C       -13.7816928640        8.3581639168        1.5358320161
 C       -13.5630708903        8.7801739467        3.0680115928
 C       -14.7233642650        8.7097156272        4.1865300702
 O       -15.8485907349        9.1256947564        3.9720602383
 C       -14.4992001375        7.8241328848        5.4874986785
 C       -13.9858913519        6.4005239270        5.2032671157
 O       -12.7821254277        6.2995845501        4.9549421282
 C       -14.9118143410        5.2627109726        4.9542843508
 C       -14.4823239532        3.7795726407        5.0945113942
 C       -13.6702838977        3.3284703132        4.0142424518
 O       -13.5126157420        4.0485327016        3.0786777592
 C       -12.8236442342        1.9322697750        4.1866967716
 C       -11.5577927436        2.0352047594        3.2699134069
 O       -10.4707566080        2.5479889614        3.5987684411
 C       -11.9262926424        1.9046928092        1.6775063655
 C       -10.6332887510        1.5618019453        0.8744772698
 C        -9.7989159090        2.8452982501        0.7807024154
 O       -10.2505981095        3.9179735666        1.2720996263
 C        -8.4006244711        2.7810389846        0.2857958891
 C        -8.3932310073        2.1459447359       -1.2178788962
 O        -8.8365188882        1.0114485414       -1.2699100379
 C        -7.9078390404        3.0382139509       -2.3219158701
 C        -6.8943637602        2.4448866218       -3.3252503091
 C        -7.0465780189        2.8839592409       -4.8424400328
 O        -8.1427770555        3.3368817013       -5.1851194583
 C        -5.7100388836        3.1180727882       -5.6059299952
 C        -4.7494897971        1.8239711100       -5.1567813767
 O        -3.8949664329        2.1216509568       -4.3447916194
 C        -4.8317147204        0.5787991985       -6.0507535466
 C        -4.0283663382       -0.5931513480       -5.3898435165
 C        -4.9906756502       -1.7546631190       -4.9442412859
 O        -6.1283766104       -1.6968474999       -5.2963524066
 C        -4.4643119720       -3.0947808231       -4.3421322988
 C        -3.9571948930       -4.1313480405       -5.3347624628
 O        -2.9965238120       -4.7608430529       -4.9780441043
 C        -4.8653347257       -4.2568583437       -6.5185076425
 C        -3.4910023907       -2.7242464182       -3.2704855405
 C        -5.7025829888       -3.8031657886       -3.6606180870
 C        -6.0657722007        3.1600979621       -7.2228179964
 C        -4.9436827457        4.4088323888       -5.2452589578
 C        -7.7128176280        4.1573145633        0.3264043139
 C        -7.6364691816        1.8225768652        1.0831686275
 C       -12.3766809096        1.7379981301        5.7582314363
 C       -13.8162784084        0.6947898297        3.8128922269
 C       -13.2216664305        8.5993205158        6.0311022489
 C       -15.6712873990        7.9655647486        6.5066058124
 C       -13.0016905880        6.2988183758       -0.9131348069
 C       -10.8358442602        7.7620151411       -1.1672979476
 H       -11.7904150947       10.1497440174       -1.6014940606
 H       -13.4157292877       10.6693358383       -1.8944098114
 H       -12.5007802364        9.9395368205       -3.1754102261
 H       -14.3151799840        7.3085703076        1.4621510032
 H       -14.3009797682        9.1404174634        1.0482747355
 H       -13.3067768228        9.8404480680        2.9987122919
 H       -12.6987327278        8.2064453914        3.4860484697
 H       -15.4043424938        5.3913904017        3.9823942201
 H       -15.5814300363        5.2762068055        5.7606479825
 H       -15.4339735436        3.2694649289        5.1058534449
 H       -13.9335325929        3.4769966744        5.9420540838
 H       -12.2880058650        2.8956964513        1.3563025437
 H       -12.5254656246        1.0272185440        1.6438159772
 H       -10.7229433135        0.9755900956       -0.0123069831
 H       -10.0915256868        0.8988039491        1.5129113878
 H        -7.3925441403        3.9417962014       -1.9956470780
 H        -8.9152964712        3.4000197933       -2.8336275959
 H        -6.8216183429        1.3576593687       -3.4146139301
 H        -5.9002414075        2.6981065852       -2.8235176727
 H        -4.2725012784        0.8502887408       -7.0310785846
 H        -5.8275369589        0.4017974177       -6.4755773455
 H        -3.5088807380       -0.2514219291       -4.5237196521
 H        -3.3243129557       -1.0718710804       -6.0562285383
 H        -5.7056400617       -3.5926320745       -6.5408579740
 H        -5.5332197835       -5.1408322495       -6.4017812221
 H        -4.3940200522       -4.2918463720       -7.3894660632
 H        -3.4108154660       -3.3892148809       -2.3341273107
 H        -3.5615237731       -1.7819220183       -2.7323792890
 H        -2.4411026430       -2.7888358261       -3.5467838609
 H        -5.5379802290       -4.8962948890       -3.3925962340
 H        -6.3524160306       -3.8237025612       -4.5654635915
 H        -6.0431886848       -3.1751118101       -2.8858703953
 H        -7.0541081208        2.8639636764       -7.2580955755
 H        -5.3814118140        2.7991706400       -7.9297743225
 H        -5.9713027927        4.2296787662       -7.5775586964
 H        -4.1726577087        4.0759849415       -4.5709022147
 H        -5.5185774245        5.1862109120       -4.8006047707
 H        -4.4108000215        4.8298797906       -6.0842676221
 H        -8.4053720379        4.7581906640       -0.3220239971
 H        -6.6568944393        4.0626669956       -0.1769598355
 H        -7.7611706116        4.5680778810        1.3306622616
 H        -8.1017833050        0.8376541802        0.8141608391
 H        -7.7758187290        2.1465178210        2.1601942952
 H        -6.5855195795        1.8551137640        0.8512353843
 H       -13.0858119327        1.6370694495        6.5837756152
 H       -11.6810937625        2.5522242653        6.0009925540
 H       -11.6673979580        0.9193462691        5.8762051420
 H       -14.6903135952        0.7833133099        4.2982161698
 H       -13.2739923406       -0.2276332249        4.0377891968
 H       -14.1998502392        0.7226203796        2.8415499414
 H       -12.8747710389        8.1066286718        6.9416697013
 H       -13.5841339869        9.5650316346        6.1717235225
 H       -12.6841924728        8.5928371506        5.1039368988
 H       -15.2592097522        7.4962851360        7.3426898557
 H       -16.6274231835        7.5048695393        6.1869106011
 H       -15.9222355593        8.9745330552        6.8712762669
 H       -12.9017456284        5.9851349489       -1.9190420519
 H       -14.0120686001        6.2780884275       -0.6085149919
 H       -12.4180048794        5.7085950402       -0.1924295108
 H       -10.4279125101        6.7195327999       -1.2298675766
 H       -10.1783059624        8.2622906160       -0.4774083531
 H       -10.6575306356        8.2146714862       -2.1706282583
 Na      -11.6025310191        5.2911397198        2.8524092838
