117

 C       -12.3929538740       10.2087176535       -1.7117100968
 C       -13.2878631073        9.0356965862       -1.6168275484
 O       -14.3907683586        8.8556494535       -2.1106367329
 C       -12.5025498494        7.5973905223       -0.7153962998
 C       -12.5100154938        7.8830578615        0.8191083216
 O       -11.5415615061        7.5731589043        1.5447728203
 C       -13.7386329444        8.4323720272        1.4928906025
 C       -13.5126235794        9.0064301676        2.8538728315
 C       -14.6048440487        8.5859798234        3.8833478442
 O       -15.7982777694        8.8213938199        3.6464297900
 C       -14.2473235175        7.9383880704        5.2747588474
 C       -14.0359676974        6.4384371878        4.8895546844
 O       -12.9261720400        6.1383156077        4.3670798853
 C       -15.0450847944        5.3225531524        5.2518691767
 C       -14.4226197765        3.9762487992        5.4893472157
 C       -13.5801895865        3.4943949454        4.1585259026
 O       -13.8109394096        3.9393959221        3.0609417035
 C       -12.6308819003        2.0603449252        4.2292033017
 C       -11.5353076888        1.9266979849        3.2066123884
 O       -10.4113502904        2.3704028253        3.4939255448
 C       -11.7493885323        1.4572500327        1.8104371928
 C       -10.8406477726        1.9368908939        0.6511155404
 C        -9.7587409336        3.1699191062        0.7383544526
 O       -10.0166716309        4.2837970599        1.1849999042
 C        -8.2465411765        2.8614390946        0.2277240337
 C        -8.3779845388        2.2840508867       -1.2580664139
 O        -8.5173885533        1.0647981282       -1.3523558576
 C        -8.2488121490        3.1036708861       -2.4853795708
 C        -7.0582178684        2.5986190184       -3.3598715064
 C        -6.8880587809        3.0558826061       -4.8493851551
 O        -7.8072650449        3.5458185465       -5.5062977163
 C        -5.5771253969        2.8225381398       -5.6598270459
 C        -4.7240066172        1.6482563761       -5.0933869972
 O        -4.1798398607        1.6052382988       -4.0173205763
 C        -4.6924335019        0.3767588590       -5.9745548460
 C        -4.1604153292       -0.8290968931       -5.2411149284
 C        -5.2285044298       -1.9772956427       -5.0215616807
 O        -6.2845303543       -1.9984974954       -5.6152306648
 C        -4.8785305791       -3.0096265802       -3.9947902529
 C        -4.2449479794       -4.3485749313       -4.8899976993
 O        -3.4495555968       -5.0709312511       -4.3944324976
 C        -4.8152136863       -4.5554152072       -6.3172428747
 C        -3.7170778367       -2.6840963542       -3.1406820646
 C        -6.0386304333       -3.3059444974       -2.9172927486
 C        -5.8289003820        2.8690378281       -7.1335600382
 C        -4.7921377513        4.1822453316       -5.3319335644
 C        -7.4595178840        4.1389037079        0.3478729388
 C        -7.6807972822        1.7408396545        1.0353990930
 C       -11.8810346973        2.0879338444        5.6213898671
 C       -13.7208360444        0.9197985817        4.2732538196
 C       -12.9311918927        8.5470639268        5.8719509700
 C       -15.5180994304        8.0866101954        6.1616037590
 C       -13.4272958409        6.3461287574       -0.8684319169
 C       -10.9686014748        7.2897137671       -1.1519448374
 H       -11.4668773406       10.1383293419       -1.0815680941
 H       -12.9792443782       11.1277715924       -1.4598483737
 H       -12.0181232147       10.1769481064       -2.7957635263
 H       -14.3791604444        7.5649341466        1.6162029434
 H       -14.2036769807        9.0694214287        0.7907959586
 H       -13.5869391144       10.0578825969        2.8837983172
 H       -12.4791903119        8.6621831351        3.1679412245
 H       -15.9503379977        5.3281533911        4.5531322044
 H       -15.4721283852        5.5520619224        6.3011069708
 H       -15.2230126780        3.2372926169        5.7554214483
 H       -13.7290908945        3.9971332830        6.3966152338
 H       -12.8577767673        1.6641448433        1.6331154611
 H       -11.4545920362        0.4281435494        1.7248403905
 H       -11.5542197389        2.0050047283       -0.2679449347
 H       -10.2762502300        1.0699041866        0.4008332263
 H        -8.1841499297        4.1018456662       -2.2460496689
 H        -9.0091222248        3.0743621201       -3.2639936611
 H        -7.0954058467        1.4480509243       -3.3252341201
 H        -6.1063567958        3.0008151086       -2.9271997694
 H        -4.1821967838        0.5365939512       -6.9545480967
 H        -5.6885867528        0.2140495154       -6.2444967403
 H        -3.8409005209       -0.5443545329       -4.2190500361
 H        -3.3280722136       -1.3133634021       -5.7535557076
 H        -5.5748969438       -5.3570658451       -6.2177712334
 H        -4.2262581552       -5.0395971799       -7.2059090636
 H        -5.2581390120       -3.7188675482       -6.7173050575
 H        -3.1220423747       -3.3706950860       -2.5402743964
 H        -4.0299352336       -1.9266725116       -2.3731961943
 H        -2.8782600818       -2.1760695089       -3.5260065286
 H        -5.6730451790       -3.8638271047       -2.0513216275
 H        -6.6830117987       -4.0633701706       -3.3419382400
 H        -6.3256781738       -2.3576583747       -2.5642866320
 H        -5.8862044568        1.8206887392       -7.4461327647
 H        -4.9430201147        3.3515632758       -7.6212987071
 H        -6.8143395987        3.3532809049       -7.5305402414
 H        -4.6589468577        4.4173430288       -4.2830552066
 H        -5.4062173595        5.0338531850       -5.7922195911
 H        -3.7977196642        4.1069616062       -5.8329814808
 H        -8.0436313349        4.9275859524       -0.0075182221
 H        -6.4610833341        3.9449260063       -0.1469341151
 H        -7.3769387973        4.3953898285        1.3647080242
 H        -7.9274187855        0.7268326318        0.6710066522
 H        -7.9412767732        2.0215244461        2.0342102809
 H        -6.6414987236        1.8698352039        0.9159421881
 H       -12.5601727849        1.7140572242        6.3767121828
 H       -11.4391109391        2.9946694383        5.9190388764
 H       -11.0895461680        1.3130856367        5.7672778384
 H       -14.2303286843        1.0387541809        5.2263858235
 H       -13.2503775854       -0.1373560653        4.2551475885
 H       -14.6337602209        1.0360091438        3.6754445932
 H       -13.2124975807        8.7515051089        6.8646609924
 H       -12.7754947789        9.4481763734        5.3066374505
 H       -12.1486579783        7.7662337414        5.6986230139
 H       -15.3475667309        7.7454915602        7.2075194219
 H       -16.4542071914        7.8785713410        5.6323401129
 H       -15.8536664837        9.1806808693        6.2387976549
 H       -13.4011600698        5.9966605902       -1.8841949482
 H       -14.4467084456        6.5048537654       -0.4948012200
 H       -12.9820302064        5.6707444641       -0.0913667737
 H       -10.3907636499        6.8395534866       -0.3380461435
 H       -10.3980882176        8.1832361866       -1.3257898863
 H       -10.8784285204        6.7819411140       -2.0943852567
 Na      -11.5588498007        5.4219457101        2.5576002302
