117

 C        -8.8144716268       -5.4652124726        4.2631133516
 C        -7.2693688752       -5.0371960447        4.3027840478
 O        -6.6278932910       -5.0985268821        3.2978413107
 C        -6.6668308031       -4.5764749795        5.6964465177
 C        -6.4481498197       -3.0184714233        5.9769453146
 O        -5.6449791106       -2.6356161063        6.7562662301
 C        -7.3461151062       -1.9807345483        5.1336917713
 C        -7.3608422075       -0.4929237963        5.7133691084
 C        -7.9311300734        0.5951808543        4.8888493991
 O        -8.9208284017        0.4610867915        4.2708859186
 C        -7.4154701260        2.1373205811        5.1667690028
 C        -7.1876522362        2.7215410801        3.7150606097
 O        -6.0498460657        2.5475822372        3.3058183564
 C        -8.3916804178        3.0110645744        2.7427489219
 C        -8.0190581481        2.9814872048        1.3159030666
 C        -9.2794659524        3.3466411852        0.4495755026
 O        -9.3429376718        4.4472146686       -0.1092776802
 C       -10.3924156155        2.2438558697        0.1781993331
 C       -11.7324110962        2.8179742132        0.6471699057
 O       -11.8431748076        3.4735889894        1.6675608230
 C       -13.1017079462        2.6542767119       -0.2222560204
 C       -13.9459262861        3.9176587486        0.0682978860
 C       -13.3420022663        5.2093484228       -0.5845655993
 O       -12.4231550851        5.8275037512       -0.1088304195
 C       -14.1958779592        5.8684744879       -1.7361198385
 C       -13.3209513760        5.6300666511       -3.0240598066
 O       -12.1157356178        5.5258656026       -2.9719954611
 C       -14.1543777691        5.6072455874       -4.3299402098
 C       -13.4462299757        6.2528299777       -5.4978810762
 C       -12.9376183858        7.6459377443       -5.0912488981
 O       -13.1327232910        8.0423521593       -3.9292939547
 C       -12.2277392702        8.5831731180       -6.1275765371
 C       -10.7289091050        8.5704088856       -5.6319914586
 O        -9.9566902021        7.8574803344       -6.2079607993
 C       -10.2073948890        9.5757254637       -4.6464869561
 C        -8.7083421392        9.1458766882       -4.1390544264
 C        -8.8305225127        8.2818659996       -2.8688070462
 O        -9.9179367599        8.1032858097       -2.3475001380
 C        -7.5854601611        7.5063827347       -2.2861349222
 C        -7.6020782898        6.0462268656       -3.1140800699
 O        -8.3572295500        5.2235528806       -2.6090170794
 C        -6.8870681951        5.8272305051       -4.4490052584
 C        -6.2628150019        8.3188483644       -2.5295853914
 C        -7.6448075690        7.2322942629       -0.7662815395
 C       -12.2394765211        8.0875090495       -7.5380112331
 C       -12.8445911584       10.0138488345       -6.0045338201
 C       -15.5767939541        5.1919924242       -2.0527545016
 C       -14.4762641732        7.3558411334       -1.4111445245
 C       -10.3768087358        1.9628506707       -1.3549379233
 C       -10.1833468273        0.8751770982        0.8542477926
 C        -8.4774409969        2.7478107829        6.0457493077
 C        -6.0197719434        2.1931568374        5.9051637217
 C        -7.3840634764       -5.3360186259        6.8782836961
 C        -5.2064753187       -5.1028829156        5.7312120843
 H        -8.9847330010       -6.2906684231        3.5930146988
 H        -9.4285463221       -4.6313625116        3.9318960712
 H        -9.2579819088       -5.7944694784        5.2437342627
 H        -8.3416181142       -2.4299824138        4.9615836596
 H        -6.9182981174       -2.0803300424        4.0942782330
 H        -6.2239348608       -0.3517832376        5.9442786467
 H        -7.9975726958       -0.4437969155        6.6569883901
 H        -8.8136793748        4.0123745926        3.0779161413
 H        -9.1777389512        2.3115872718        2.9222437086
 H        -7.6440803151        2.0678474057        0.8485933193
 H        -7.2753387723        3.7364342286        1.1738655148
 H       -13.5890567725        1.6916921927        0.1289023302
 H       -12.9002444080        2.4948754586       -1.3049208669
 H       -13.9261305840        4.0717724920        1.2108469286
 H       -14.9319897994        3.8653527583       -0.3478626345
 H       -15.0557640325        6.1628122576       -4.1069851752
 H       -14.5106926937        4.6173452506       -4.4655885611
 H       -14.2200191956        6.3421127776       -6.2435591642
 H       -12.6369773060        5.5905180017       -5.8725468044
 H       -10.8487625367        9.4641853632       -3.7092189632
 H       -10.2591971141       10.6015290097       -4.9575115053
 H        -8.1739311939       10.0525640401       -3.6651085916
 H        -8.1547093433        8.7686909574       -4.9627101535
 H        -7.6140229188        6.1989241551       -5.2733248244
 H        -6.8236366659        4.8036255659       -4.6804426258
 H        -5.9203591495        6.2255174155       -4.4759903487
 H        -6.1551756145        9.1395031606       -1.8266551540
 H        -6.1147955538        8.7576889946       -3.5278827746
 H        -5.4311756640        7.6207651937       -2.2991610957
 H        -8.5568452312        6.7747418622       -0.2878551652
 H        -7.7178134209        8.2070535488       -0.5019459889
 H        -6.8083310452        6.5306703016       -0.3338805717
 H       -11.6041986803        7.2062309013       -7.7080245190
 H       -12.1322916870        8.8232181075       -8.3127978312
 H       -13.3087104548        7.7382402298       -7.6767801199
 H       -12.4564695708       10.6902262783       -6.6676993755
 H       -12.8466019666       10.2543369700       -4.9141297043
 H       -13.9319511621        9.7844740001       -6.2402364495
 H       -16.1292602127        4.9969784231       -1.1734499465
 H       -15.5942401254        4.2948469250       -2.5940637168
 H       -16.2395985665        5.9104087311       -2.4898134210
 H       -15.0025697871        7.4118564403       -0.4102504258
 H       -15.0225223477        7.8956364441       -2.2166055362
 H       -13.4863889222        7.8595388853       -1.1466708931
 H       -11.2257212918        1.4043056109       -1.6916967072
 H        -9.4870479061        1.4598314621       -1.6662391469
 H       -10.3034247562        2.9004600975       -1.9333600275
 H       -10.3854957995        0.9904161942        1.9193105228
 H        -9.1014815592        0.5898719056        0.6872861514
 H       -10.9236280535        0.2407518916        0.4837950117
 H        -8.9829127123        1.9801819544        6.6941670528
 H        -9.3004306122        3.2278876062        5.4965448602
 H        -8.0303873698        3.5222973888        6.6703762907
 H        -6.0575071830        1.4804922282        6.7565667053
 H        -5.8553486685        3.2301921138        6.3858212960
 H        -5.1661878470        1.8428664111        5.2769557168
 H        -8.3017434411       -4.8142801981        7.1029007237
 H        -6.7349885431       -5.3040832035        7.7021192186
 H        -7.6380759289       -6.3414219661        6.5640202339
 H        -4.5153812637       -4.8398846244        4.8866259262
 H        -5.1859720800       -6.1913499277        5.7824720422
 H        -4.7956940010       -4.8067995492        6.6982156810
 Na      -10.3751192471        5.5778103675       -1.7906280421
