117

 C       -12.2783689750       10.2140445190       -1.4475406199
 C       -13.1295048097        8.8414865691       -1.5350129889
 O       -14.2987496677        8.9739767256       -1.8605401738
 C       -12.5957758763        7.5436730633       -0.8294626836
 C       -12.5667824218        7.8487814848        0.8052104525
 O       -11.5854304601        7.5630922359        1.4579375581
 C       -13.8135720451        8.5484531595        1.4708070618
 C       -13.4469169134        9.0766311690        2.8971472035
 C       -14.5720541059        8.5860256968        3.7657299513
 O       -15.7102803823        8.6206279751        3.3948411245
 C       -14.2514247209        7.9316926178        5.2753822028
 C       -13.8695982735        6.4710283583        4.8653550850
 O       -12.9130218035        6.3825015182        4.0792173382
 C       -14.8004117187        5.2375347704        5.1199981451
 C       -14.2329406910        3.8666987554        5.4278665304
 C       -13.5404719117        3.4208555191        4.2013518955
 O       -13.7529365975        3.9479524482        3.1605225059
 C       -12.6623873340        2.2127332811        4.3339542894
 C       -11.4566747225        2.1848014925        3.1548134762
 O       -10.3257887285        2.4754247309        3.4555980550
 C       -11.7446767964        1.5724118051        1.7268820093
 C       -10.8500110138        2.0323921856        0.5478433724
 C        -9.7916139544        3.1282414321        0.8180288026
 O       -10.0496539428        4.3093410910        1.1785646325
 C        -8.3596198414        2.9056622811        0.1681698853
 C        -8.3329680687        2.2180773363       -1.2795878580
 O        -8.5275948543        1.0441370088       -1.3898743220
 C        -8.1280214370        3.1280788626       -2.5323090903
 C        -7.0225093592        2.6926377161       -3.4295534999
 C        -7.0114433231        3.1523497759       -4.8532233970
 O        -7.9948648649        3.6040455284       -5.3856276352
 C        -5.5000983927        2.8523222322       -5.6574784572
 C        -4.8009553361        1.5216857497       -5.1101420579
 O        -4.3620336179        1.5861573807       -3.9552718459
 C        -4.7074663577        0.2174672297       -6.0064813125
 C        -4.2359285458       -0.9208565076       -5.1040237521
 C        -5.2652368674       -2.0249800260       -4.9557605652
 O        -6.3197717548       -2.0246685758       -5.5629096583
 C        -4.8560400769       -3.0624709702       -3.8932475025
 C        -4.5169415932       -4.4075950981       -4.6629124487
 O        -3.6347054251       -5.1038256561       -4.1869766787
 C        -4.8255105250       -4.7296252072       -6.0889228213
 C        -3.5727508197       -2.7394768723       -2.9844071418
 C        -6.1377988972       -3.2411565891       -3.0858409286
 C        -5.8146757640        2.8775064286       -7.1501441858
 C        -4.5323446324        4.0175872641       -5.2496827602
 C        -7.5286004940        4.2195711958        0.2780985178
 C        -7.7205921455        1.6543276386        1.0915226606
 C       -11.8350645961        2.2290268840        5.6989409643
 C       -13.6254743578        0.9926130753        4.2770397074
 C       -12.9110216766        8.4050110886        5.8684242750
 C       -15.4344515698        8.1868954854        6.1451466453
 C       -13.4823892850        6.3332819408       -1.1289000009
 C       -11.1838411938        7.2024022918       -1.2393540937
 H       -11.6633738579       10.3454105072       -0.5925096434
 H       -13.1909123695       10.8653581504       -1.3982653506
 H       -11.6545238420       10.4288113611       -2.2665701718
 H       -14.7130462901        7.8547310182        1.5235380919
 H       -14.1122165147        9.3236440607        0.8233420166
 H       -13.5512007599       10.1889844041        2.9250280865
 H       -12.4404998993        8.7446296713        3.2138210167
 H       -15.5103831250        5.2265170532        4.2033259125
 H       -15.4391959933        5.4056142940        5.9821178195
 H       -15.0621227160        3.1462996846        5.6030364656
 H       -13.6971813795        3.8751792296        6.3593595358
 H       -12.7791067199        1.9350185286        1.5225151359
 H       -11.6560593766        0.4941351309        1.6979801183
 H       -11.5679487724        2.5020552213       -0.1036155403
 H       -10.4615635578        1.2069166507       -0.0605340896
 H        -8.0610753403        4.1895433345       -2.2611438539
 H        -8.9753341290        3.1773312380       -3.2979967658
 H        -7.1895366083        1.5890790364       -3.4760963467
 H        -5.9448663622        2.9627450928       -2.9861332718
 H        -3.9333229004        0.6045931876       -6.7441163640
 H        -5.6427351627        0.0401050469       -6.5080500702
 H        -3.9442884706       -0.5562722092       -4.1487199077
 H        -3.4413862188       -1.5002248771       -5.5398826171
 H        -5.1855620348       -5.7468612514       -6.3155037378
 H        -3.9908526800       -4.7429385362       -6.6317224162
 H        -5.4489657804       -4.0113047654       -6.6222809324
 H        -3.3385949249       -3.5090194816       -2.1287908461
 H        -3.6223637430       -1.8414387453       -2.3753629585
 H        -2.5401358238       -2.6135665875       -3.3178030445
 H        -6.2157976170       -4.0246174162       -2.2825748619
 H        -6.8813368453       -3.5406767639       -3.7694694603
 H        -6.1636842200       -2.2987938244       -2.6276649631
 H        -6.2409425246        1.9884652618       -7.5672317372
 H        -4.9128096264        3.2292947643       -7.8387919863
 H        -6.6503208184        3.6488828755       -7.2453007996
 H        -4.5686960392        4.4002992397       -4.1969995425
 H        -4.6422039101        4.8168157628       -5.8684597884
 H        -3.5652472276        3.5337853352       -5.4491523289
 H        -8.0861503971        5.0910495639       -0.1948971647
 H        -6.5548319175        3.9127711921       -0.1751152619
 H        -7.4701977432        4.5781407020        1.2686760358
 H        -8.1544730200        0.6855849841        0.8645431377
 H        -7.6998723071        2.0310008947        2.1842696853
 H        -6.7107341379        1.6390964702        0.6874565655
 H       -12.3298226080        1.8814830511        6.5691115308
 H       -11.3075078628        3.1802664896        5.9361013682
 H       -11.0931519482        1.4997539346        5.6991231344
 H       -14.0974059213        1.0492614241        5.2159351902
 H       -13.0706348554        0.0654609709        4.3124517998
 H       -14.5041984700        0.9770456186        3.6566447927
 H       -13.0286708658        8.6353204651        6.9843234786
 H       -12.8193807827        9.2969060339        5.3388140878
 H       -12.2060844576        7.6501406414        5.5564161637
 H       -15.0942552922        8.0742602643        7.1076239608
 H       -16.4192976250        7.7580210447        5.8668397743
 H       -15.8794975766        9.2117261081        6.0204968327
 H       -13.4247917128        6.0727145738       -2.1722805652
 H       -14.4112909601        6.7693780118       -0.9127813576
 H       -13.4018147699        5.5338042797       -0.3953174199
 H       -10.5248412969        7.0013203714       -0.3982370721
 H       -10.6365943041        7.9146108530       -1.7918947939
 H       -11.2559340572        6.3874896071       -1.9597288285
 Na      -11.6754069546        5.3794952484        2.4564746819
