117

 C       -11.5741636235       10.0347155670       -1.4651837938
 C       -12.8865602461        9.2382994626       -1.4615424836
 O       -13.9169402266        9.6410697642       -1.7901626777
 C       -12.7416422845        7.7877267171       -0.9523993700
 C       -12.8552705977        7.6461347677        0.5859600401
 O       -12.0041405005        7.0437403800        1.2255388840
 C       -13.8592690993        8.6775591610        1.2788623617
 C       -13.3828997833        9.0218645504        2.6992212010
 C       -14.5243829020        8.4897886723        3.5966908927
 O       -15.5745603554        8.1894934220        3.1504484397
 C       -14.1147613100        8.0566375955        5.0015209435
 C       -13.5395433813        6.6060000535        4.6943718225
 O       -12.4305791790        6.4749482971        4.1765212216
 C       -14.5306162009        5.3786917145        5.0273694265
 C       -13.7417784261        4.0607008886        5.4238722702
 C       -13.2750452028        3.3957387573        4.1080150045
 O       -13.7362331681        3.7184388094        3.0712392483
 C       -12.1968550432        2.3240985256        4.1859842479
 C       -11.1760795121        2.4373144891        2.9884874332
 O       -10.0752784343        2.8833418071        3.1378422563
 C       -11.7552163530        1.9206423404        1.6401547207
 C       -10.8225491761        2.1057107572        0.4825704644
 C        -9.8016601262        3.3745803528        0.5508822869
 O       -10.1810156822        4.5731781814        0.6447884170
 C        -8.3660378952        3.0073007933        0.2758644644
 C        -8.4909811615        2.3989482807       -1.2591062210
 O        -8.9159379017        1.3132754818       -1.4148301242
 C        -8.2732582348        3.2239224485       -2.5774637190
 C        -6.8976436347        2.9399735924       -3.1686399012
 C        -6.7766025074        3.3117945259       -4.6612024456
 O        -7.7082498609        3.7925766205       -5.1978538910
 C        -5.5275600222        2.5809997688       -5.3865496771
 C        -4.9372152352        1.2004353549       -4.9369968136
 O        -4.8221744465        1.0096856315       -3.7301387254
 C        -4.6047971602        0.0530319827       -5.9451856559
 C        -4.0535373562       -1.2288299065       -5.2071386864
 C        -5.2079139297       -2.2115827510       -4.7035520442
 O        -6.2146225298       -2.3724422508       -5.3630811089
 C        -5.0608694446       -3.2366142407       -3.5403460778
 C        -4.8019602649       -4.6865216157       -4.1006526168
 O        -4.3274641978       -5.4360548141       -3.2625993946
 C        -5.3733023276       -5.1879335516       -5.4317199926
 C        -4.0951662125       -2.7321818898       -2.5545489348
 C        -6.5457601082       -3.2819136284       -2.9579291674
 C        -5.8342750196        2.7100823398       -6.8803631033
 C        -4.5465828340        3.8430532966       -5.1394680070
 C        -7.4717937378        4.3085554335        0.2849507164
 C        -7.7958020269        1.8320441128        1.0451264613
 C       -11.3880169560        2.4466413243        5.4740196847
 C       -12.8860630358        0.9976253733        4.2867205508
 C       -12.9059216657        8.9254795638        5.6605471469
 C       -15.3184974841        8.2060091650        6.0208316101
 C       -14.1298034023        6.7970345241       -1.1965862121
 C       -11.6406186274        7.0292936786       -1.5208557469
 H       -10.8643006262        9.6029017378       -0.6441220453
 H       -11.7999116656       11.0947617662       -1.2417354691
 H       -11.0009675066        9.9676460798       -2.4513293167
 H       -14.9084189563        8.4250176178        1.3434188815
 H       -13.8957947428        9.5151914802        0.6184423307
 H       -13.2272280414       10.1186251100        2.7433069367
 H       -12.4183685011        8.5718395177        2.9091327850
 H       -15.2064894142        5.0171211096        4.1719427302
 H       -15.3816049502        5.5928216364        5.6828828363
 H       -14.4142762192        3.2755282655        5.9179700512
 H       -13.0290866794        4.3507419325        6.1974503722
 H       -12.7196187612        2.4674751446        1.4287319545
 H       -12.1646337179        0.9064767470        1.7715520423
 H       -11.4266082515        2.2256090245       -0.4174370536
 H       -10.1991499477        1.1423077073        0.3642002605
 H        -8.4627471604        4.3089758872       -2.4652270208
 H        -9.1316663986        2.8028762077       -3.1275227094
 H        -6.8880303780        1.8062122662       -3.1518856349
 H        -6.0983680214        3.2806996943       -2.3727007219
 H        -3.7794685974        0.4395065868       -6.5452691972
 H        -5.4757615618       -0.0724060243       -6.5332738325
 H        -3.3783284261       -1.0058121162       -4.3893118085
 H        -3.5529492920       -1.7186796013       -6.0641360721
 H        -4.6846607285       -5.4765824977       -6.1503008431
 H        -6.0355863286       -4.5489413846       -5.9220943267
 H        -5.9335591213       -6.1961320180       -5.2492233658
 H        -3.6263882045       -3.4573067682       -1.8844317801
 H        -4.2059130635       -1.9427296305       -1.8607934914
 H        -3.1990504883       -2.2187910579       -3.0467227826
 H        -6.6114605673       -4.0327115175       -2.1379245197
 H        -7.2211534084       -3.5150089644       -3.7676238210
 H        -6.7898842545       -2.3134227334       -2.4460513163
 H        -6.7980160683        2.1566899500       -7.0089134355
 H        -5.3083424145        1.9497798114       -7.4916044117
 H        -6.1046205172        3.6900473674       -7.1097361876
 H        -3.7068392609        3.5033513453       -4.4119032612
 H        -5.0614160473        4.6762224331       -4.7278327525
 H        -4.1806959097        4.0937750248       -6.1444047851
 H        -8.0039028907        5.1778421732       -0.2205771768
 H        -6.5367721581        4.1162120540       -0.1274706332
 H        -7.2295768261        4.4804963925        1.3435829816
 H        -8.4472729753        1.1042022807        0.7365033362
 H        -7.8073474137        2.0589016544        2.1103904112
 H        -6.7950149111        1.6438813070        0.6458040432
 H       -11.6809510732        2.4364981072        6.5084694664
 H       -10.7765068157        3.3877288869        5.3909673262
 H       -10.6390502574        1.7152218559        5.4318764869
 H       -13.2758380776        0.8775210638        5.3555279007
 H       -12.2679586068        0.1414230162        4.1118043717
 H       -13.7134997004        0.8340104610        3.5193969906
 H       -12.0653419181        8.3189360065        6.1100938832
 H       -13.5020913244        9.5730825524        6.2891484382
 H       -12.4230196636        9.3811050526        4.8384852756
 H       -15.2752704906        7.3513815456        6.8022709616
 H       -16.4402010783        8.2401356219        5.7344908134
 H       -15.1633728959        9.1400112368        6.6071795428
 H       -14.4230288691        6.5952082206       -2.2781882378
 H       -14.9037233200        7.1963872265       -0.5314496432
 H       -13.7210316658        5.8376747314       -0.8171837233
 H       -10.6434849051        7.4769377080       -1.4172792611
 H       -11.7826063773        6.8127471957       -2.5851737136
 H       -11.6362899534        6.0758992584       -0.9177481520
 Na      -12.0526278610        5.0170577810        1.9192412735
