117

 C       -10.9831249578        9.3526189896       -2.3984154245
 C       -12.4743451803        9.4322814280       -2.0562440256
 O       -13.1662915461       10.4970014467       -2.1380625812
 C       -13.1787333181        8.1402191948       -1.4100994666
 C       -13.2744977327        8.1098267607        0.1917285562
 O       -12.7889403457        7.0792309501        0.6456379729
 C       -13.9598273360        9.2368796583        1.0687193134
 C       -13.4722865219        9.0360525400        2.4963317585
 C       -14.4003071750        8.4689992300        3.5039400416
 O       -15.5317316087        8.1425950770        3.2222727126
 C       -13.9601138486        8.0805613825        4.9905426179
 C       -13.5190612472        6.4565437261        4.8384757056
 O       -12.4893763383        6.2711878274        4.2106645904
 C       -14.1937866656        5.3179574774        5.5577640337
 C       -13.4483137077        3.9818136677        5.7124138286
 C       -12.9221110812        3.3755399380        4.4255153640
 O       -13.2637993403        3.8646252218        3.3374019451
 C       -11.8094188573        2.3868467381        4.3972984575
 C       -11.2119823636        2.4422159346        2.9348872308
 O       -10.1071199475        3.0137748574        2.9112842947
 C       -11.9113252729        1.8962510207        1.6726954124
 C       -10.9951528344        1.8698811511        0.4889936478
 C       -10.1921508119        3.1747378916        0.3861254478
 O       -10.6664222045        4.3418125764        0.5770856256
 C        -8.6239663272        3.1902232665       -0.0795494201
 C        -8.3643567190        2.5893360922       -1.4579050831
 O        -8.5455364293        1.3686074140       -1.6945888570
 C        -7.8755379753        3.4784129985       -2.5681657479
 C        -6.4524634867        3.1178515392       -2.9934480729
 C        -6.3786914439        2.9291993395       -4.6137722180
 O        -7.2927933877        3.3110239348       -5.3784045525
 C        -5.2608079497        2.2834620635       -5.3126638764
 C        -5.0485429821        0.8450151739       -4.7579369241
 O        -5.1243383727        0.5997346714       -3.6085774655
 C        -4.6334267333       -0.3199459493       -5.7608667265
 C        -4.2082595897       -1.6136201841       -5.0689077614
 C        -5.4804639776       -2.3812013412       -4.5604753700
 O        -6.3634583322       -2.5944712545       -5.3904578764
 C        -5.5314211710       -3.1806914753       -3.1770406448
 C        -5.2723726397       -4.7537576142       -3.3560352214
 O        -4.4862771547       -5.2811167100       -2.6170540438
 C        -6.1709103767       -5.3087635072       -4.4123108132
 C        -4.7538050220       -2.7092942573       -1.9519625694
 C        -7.0063443583       -3.0594392968       -2.8140576540
 C        -5.5634987023        2.1074290594       -6.8240956102
 C        -3.9576673160        3.0488400712       -5.1298284139
 C        -7.9936951928        4.5752226795        0.2719862764
 C        -7.8734309498        2.1258348502        0.9348216309
 C       -10.7534886839        2.7232328782        5.2976718648
 C       -12.3026314264        0.9035211441        4.5053319057
 C       -12.6255925514        8.7689244107        5.4000487766
 C       -15.0650857355        8.1322397373        6.0278824653
 C       -14.5952425902        8.0789189240       -1.9293990845
 C       -12.4116615406        6.7933849438       -1.9317900786
 H       -10.4844102580        8.9245488000       -1.5089369962
 H       -10.4366221390       10.3691645572       -2.5342423724
 H       -10.8398418678        8.7784034066       -3.3766824806
 H       -14.9680327829        9.3904997482        0.8307538543
 H       -13.4827898145       10.1529552710        0.5830225546
 H       -12.9475285089        9.9798334229        2.8084590296
 H       -12.6716094088        8.3336446516        2.4362338933
 H       -15.2139913080        5.1666215721        5.2046085557
 H       -14.6313467000        5.5754257608        6.5605695596
 H       -14.1792628907        3.3671914764        6.2566883665
 H       -12.6325862077        4.2632682339        6.4144187156
 H       -12.7638607979        2.5501039024        1.5007277847
 H       -12.6183309161        1.0383208006        1.7679912468
 H       -11.6275524892        1.7591843673       -0.4255419714
 H       -10.3208971122        1.0498480361        0.5802387017
 H        -7.8453704392        4.5986326552       -2.3979604976
 H        -8.4815674390        3.1589163392       -3.4805938916
 H        -6.0160582455        2.1009632509       -2.5580793904
 H        -5.8624169175        3.8997229418       -2.4880254745
 H        -3.9001950647        0.1210813063       -6.3288706103
 H        -5.5970432593       -0.5349330772       -6.3079526505
 H        -3.5088457902       -1.5172774464       -4.2472967574
 H        -3.8279100780       -2.3609382573       -5.8101136045
 H        -6.9510588659       -4.5934426715       -4.6790037927
 H        -6.7817638600       -6.1636814405       -4.1515365438
 H        -5.7637735642       -5.3367938081       -5.3401248184
 H        -4.8933161751       -3.4042493733       -1.1154695296
 H        -4.9589532455       -1.7713000282       -1.3452272081
 H        -3.6801574307       -2.7146662301       -1.9478915236
 H        -7.1904559025       -2.9232285244       -1.7922179107
 H        -7.6981431281       -3.8304109507       -3.1659735358
 H        -7.5113075457       -2.2763975372       -3.4097238633
 H        -6.6397578041        1.8634024567       -6.9359372351
 H        -5.0133873118        1.3215837271       -7.3768834447
 H        -5.3903509876        3.1207877080       -7.3506135227
 H        -3.5223634942        3.0444959259       -6.0535862348
 H        -3.2951800709        2.4234147757       -4.4160997473
 H        -4.1071160382        3.9886036154       -4.5748341329
 H        -8.5006977856        5.3639869559       -0.2331634746
 H        -6.8694723159        4.7565337705        0.0530810191
 H        -8.1437887346        4.6131484923        1.3631234474
 H        -8.2785331782        1.1334114411        0.7768142148
 H        -8.0561095887        2.4706085092        1.8868490687
 H        -6.8525387203        2.2493698106        0.7018885142
 H       -11.0581790248        2.7924611828        6.3336752617
 H       -10.3441574734        3.6738449379        5.2284142149
 H        -9.8787329491        2.0508626999        5.1849492259
 H       -12.8610832450        0.6254060496        5.3915818762
 H       -11.4967387137        0.0677025805        4.4236242503
 H       -12.9963750436        0.6154153953        3.6788449479
 H       -12.5914114714        8.8583755723        6.4497716350
 H       -12.7456561624        9.7503650226        4.8460950736
 H       -11.7300735291        8.2468811977        4.9208015717
 H       -14.9494274248        7.3917689432        6.7798056850
 H       -15.9917082823        7.6487434949        5.6450577711
 H       -15.2588066619        9.0809621803        6.6280739713
 H       -14.5406461225        8.0106417177       -3.0289621359
 H       -15.1570663473        8.9692461192       -1.4952863742
 H       -14.9251892365        7.0656643470       -1.6741958568
 H       -12.9268061682        6.3094484630       -2.7707017940
 H       -12.2861766126        6.0116318296       -1.1334749321
 H       -11.5279493990        7.1716228640       -2.3693469810
 Na      -11.8914979535        5.5502033604        2.1567165111
