117

 C       -10.9012467449        9.2735481526       -2.4765330081
 C       -12.4270751087        9.4362245951       -2.0587797376
 O       -12.7840163874       10.5284606881       -1.7885742596
 C       -13.3074769320        8.1313599644       -1.4851464223
 C       -13.3056309895        7.8908885398        0.1014076619
 O       -12.9884344278        6.7824904424        0.5787834146
 C       -13.8295243635        9.1218061837        0.9852173020
 C       -13.3888785383        8.9722972812        2.4548026115
 C       -14.2828494748        8.1771665825        3.3363011430
 O       -15.4544806318        8.0693328007        2.9541533732
 C       -13.8885543762        8.0088348163        4.8037260339
 C       -13.3969796883        6.5510574947        4.8034992560
 O       -12.4146688183        6.2665125096        4.1041203895
 C       -14.2012669618        5.4109965231        5.4002630102
 C       -13.3679966385        4.1109634761        5.8131917113
 C       -12.7815021723        3.6207491159        4.5445984661
 O       -13.1564402701        4.0264641284        3.4860760122
 C       -11.7096364586        2.3992679507        4.5493111346
 C       -10.9998385553        2.2677284624        3.0381524753
 O        -9.9730628391        2.8660408391        2.8016081946
 C       -11.9212349611        1.8938332236        1.8857211712
 C       -11.1712666028        1.8991765059        0.4946643219
 C       -10.3397485252        3.2786217065        0.3010221284
 O       -10.8693929943        4.3236922737        0.1553013962
 C        -8.6413715170        3.2668479117       -0.0055280240
 C        -8.2355689104        2.6961501666       -1.4657976521
 O        -8.4928880966        1.5507029090       -1.7378792244
 C        -7.6897709263        3.6096570822       -2.4972629233
 C        -6.3127172164        3.1252592698       -3.1146982140
 C        -6.4130811076        2.8988551184       -4.7519413159
 O        -7.3141469586        3.1797042462       -5.4507060077
 C        -5.2196582484        2.1640031207       -5.4817442107
 C        -4.8794741939        0.5644756460       -4.9598419855
 O        -5.2823220796        0.3581585443       -3.8141432258
 C        -4.3150611538       -0.7011375148       -5.6493989229
 C        -4.1780030611       -1.8284977616       -4.6602831761
 C        -5.6848109928       -2.4633967969       -4.2835145902
 O        -6.4218866378       -2.6326832080       -5.2177812185
 C        -5.9065721291       -3.1573746061       -2.9585894605
 C        -5.5542620519       -4.7939117675       -3.1646625744
 O        -4.6212594696       -5.2072782826       -2.5318680474
 C        -6.2810381990       -5.7884086264       -4.0928963934
 C        -4.9287157141       -2.5504127603       -1.9581457760
 C        -7.4524845003       -2.8389083179       -2.5196452005
 C        -5.2144299389        2.3452053141       -7.0026799451
 C        -3.7639067177        2.7900292480       -5.1209534966
 C        -8.2374483640        4.8099236112        0.2266165568
 C        -7.8311634370        2.2670321381        0.9364283029
 C       -10.6306210026        2.5231733413        5.6876512150
 C       -12.4380186879        1.0884963913        4.8622386192
 C       -12.5532966773        8.6981183693        5.3460499024
 C       -14.9913966821        8.4162906732        5.7167344179
 C       -14.8173114878        8.7341296964       -1.8600919130
 C       -13.0704373554        6.8246810444       -2.2158915070
 H       -10.4456181887        9.4283719448       -1.5217027993
 H       -10.5508128103       10.0046074347       -3.0555665811
 H       -10.6267194651        8.3515686360       -2.8835065085
 H       -15.0002340271        9.0955483078        0.9771628338
 H       -13.6746897152       10.0955659516        0.5630435849
 H       -13.4988720842        9.9661851792        2.8617408673
 H       -12.2652343144        8.8148928214        2.5081863429
 H       -15.0963272189        5.1595751603        4.8061192472
 H       -14.7271421574        5.7496859097        6.2591517110
 H       -14.0020472213        3.3275814416        6.2073012758
 H       -12.7066810958        4.4738056726        6.5479379024
 H       -12.7419985386        2.6231613879        1.8736047084
 H       -12.6312985528        1.1246309982        2.0114067023
 H       -11.9351820340        1.7874030273       -0.2063102844
 H       -10.4385294890        1.0320672844        0.4526483339
 H        -7.4910020809        4.6257211781       -2.1293127925
 H        -8.4105700055        3.5680096476       -3.3360067417
 H        -5.8986305083        2.3315562308       -2.6294320249
 H        -5.5964622566        3.9206101881       -2.9007764777
 H        -3.3101655440       -0.3913390177       -6.1538740877
 H        -5.1035254044       -0.9215117632       -6.3332298525
 H        -3.4439680120       -1.7173856180       -3.8688186804
 H        -3.8968191852       -2.7324592350       -5.1993541618
 H        -7.3118331716       -5.7825457319       -4.3728538563
 H        -6.1186910686       -6.8415729780       -3.6538526895
 H        -5.8364097893       -5.5701342979       -5.1164640835
 H        -4.8265321169       -2.7906214589       -0.9325372487
 H        -5.0788784930       -1.5278656681       -1.7850110398
 H        -3.8710960806       -2.7234312242       -2.2842011482
 H        -7.5644159994       -3.2733435004       -1.5078697307
 H        -8.2590531580       -3.2483839003       -3.0741786009
 H        -7.7729416826       -1.7985380500       -2.5138095142
 H        -6.0773844581        1.8188312524       -7.4697939365
 H        -4.2527889374        1.9394909392       -7.3689819207
 H        -5.2104643458        3.2840615469       -7.3585568811
 H        -3.3226130104        3.4030511166       -5.9588052447
 H        -3.1184312603        2.0055491421       -4.8613461312
 H        -3.9321334187        3.3150587834       -4.2324469075
 H        -8.7280825289        5.5537367068       -0.5304171133
 H        -7.2077652958        4.9215069983        0.1590978789
 H        -8.5660643483        5.0813492324        1.2980052780
 H        -8.3721120030        1.3437477553        0.7950887455
 H        -8.0592264113        2.6185201234        1.9806732472
 H        -6.7442570256        2.3002275577        0.6442203154
 H       -10.9266710530        2.1154171134        6.6294694654
 H       -10.3024001744        3.5399624566        6.0663955428
 H        -9.7023539162        2.1066721114        5.4086463832
 H       -12.5021211162        0.8423645989        5.9211075942
 H       -11.8560029608        0.3545270697        4.5270262593
 H       -13.4196075719        0.8302175633        4.5741956486
 H       -12.2771154498        7.9584905779        6.1651457285
 H       -12.6736360588        9.6954546569        5.8286470816
 H       -11.8985677974        8.7457154584        4.5412791376
 H       -14.9755929574        8.2192062902        6.8365914747
 H       -15.9435184986        8.0818152000        5.4345318930
 H       -15.0381165798        9.4404791234        5.6399862412
 H       -14.6139468958        9.0625810110       -2.8576884061
 H       -14.9308394916        9.6005414441       -1.2917679977
 H       -15.5885019941        8.0057650226       -1.8384201466
 H       -13.9282785573        6.5254240658       -2.8425778208
 H       -12.8965304250        6.0519338744       -1.4967915509
 H       -12.2118309694        6.9892957799       -2.8987934171
 Na      -11.6928444107        5.7104863751        1.8674700695
