117

 C       -11.2069732855        8.2448682123       -2.4381123672
 C       -12.2815325849        9.1696593441       -1.7117624831
 O       -12.0459708388       10.2775656529       -1.2180632980
 C       -13.8165823262        8.5589603967       -1.6622783254
 C       -13.5257312936        8.1150414394       -0.2141355477
 O       -12.8550275716        7.0421412870       -0.0573690240
 C       -13.8690243647        9.1600489622        0.8281614513
 C       -13.0940912786        8.7549934524        2.0674012817
 C       -14.0594435754        8.2417725168        3.1424448916
 O       -15.0841716734        7.5980217850        2.8860350718
 C       -13.6735647905        8.2651265009        4.6366979027
 C       -12.9397276372        6.8577313555        4.7121345746
 O       -11.8646417410        6.6595931874        4.1104570141
 C       -13.6711892950        5.7341122358        5.3393155980
 C       -13.0540578523        4.3524757719        5.6246124943
 C       -12.6358358071        3.6956961072        4.2938989767
 O       -13.0696143112        4.1062344557        3.2439098194
 C       -11.7076206753        2.5311291347        4.5019696579
 C       -10.8046457663        2.4992664451        3.1234495793
 O        -9.6398697115        2.8867257357        3.0784466722
 C       -11.3801755745        1.6569881688        1.8374152391
 C       -10.3951048124        1.6708830308        0.6299323891
 C       -10.0992524176        3.1302821753        0.1765437362
 O       -10.9018800728        4.0099324360        0.0485414447
 C        -8.5792034577        3.5024278412       -0.2560997169
 C        -8.4621785678        2.9701573051       -1.7165424484
 O        -8.8005234646        1.7676929168       -1.8246617063
 C        -7.5585588286        3.7591102945       -2.7698441459
 C        -6.3718608922        2.7526266373       -3.0526125952
 C        -6.2248811278        2.5651957000       -4.6077689677
 O        -7.0340064134        3.0048379425       -5.4255701339
 C        -5.0610199244        1.7208119189       -5.1533200440
 C        -5.2285865939        0.1074297102       -4.6137714671
 O        -5.9024883855       -0.1175987042       -3.6333341092
 C        -4.5653081587       -0.9293699921       -5.4197352009
 C        -4.2429570393       -2.2504694132       -4.6163638370
 C        -5.7324480417       -2.7134342430       -4.1304024627
 O        -6.6388127301       -2.5714353873       -4.9393326065
 C        -6.2346075237       -3.0350129519       -2.6558764611
 C        -5.8945547330       -4.5955185159       -2.7247431422
 O        -4.8485108276       -4.9987502331       -2.2697641861
 C        -6.7636816353       -5.5944970415       -3.4102151667
 C        -5.4432258395       -2.2476106471       -1.5667762281
 C        -7.6636972594       -2.8892659904       -2.5404205392
 C        -4.9976536779        1.6365942913       -6.6176711830
 C        -3.6086510351        2.3255073569       -4.6253595748
 C        -8.4362753158        5.0150033338       -0.2265804011
 C        -7.3929490781        2.8763784871        0.7043750280
 C       -10.9463971512        2.5910006308        5.8063936988
 C       -12.5114927925        1.1593036097        4.5864231063
 C       -12.6605113500        9.3955744357        5.0693337804
 C       -15.0722225567        8.3275804396        5.3733378231
 C       -14.9130131487        9.5520814703       -1.8190302370
 C       -14.0210026823        7.4372969845       -2.8077106052
 H       -10.3557144272        8.8621973209       -2.6480740115
 H       -11.6414105331        7.9152158342       -3.3622956473
 H       -10.9042478033        7.3272510381       -1.8748376117
 H       -15.0198078652        9.2602381848        0.9822074504
 H       -13.6565819349       10.1344409614        0.3724080434
 H       -12.4371481373        9.5411971638        2.3852937669
 H       -12.3544136430        8.0043924938        1.6878964189
 H       -14.6583796512        5.5635099950        4.8584516712
 H       -13.9360293229        6.0585592917        6.3222576389
 H       -13.8153583912        3.7507144692        6.1422592770
 H       -12.2716997527        4.5714913403        6.2892123797
 H       -12.4292527730        1.8795056543        1.5278504575
 H       -11.5163199949        0.6500537982        2.2356528590
 H       -10.8302050442        1.2385598374       -0.1922754228
 H        -9.5202793531        1.0206583607        0.9081800939
 H        -7.0723971595        4.6924024857       -2.2258574293
 H        -8.0317368249        4.2023450719       -3.7316839273
 H        -6.5092097945        1.9018211651       -2.4429645037
 H        -5.3511402259        3.1024616865       -2.7993836236
 H        -3.6048837360       -0.4645593778       -5.8530965284
 H        -5.2743612012       -1.1012280030       -6.2071507405
 H        -3.5722354911       -2.1564027535       -3.7821409083
 H        -3.6974221800       -2.8952660318       -5.3005891398
 H        -7.3496387842       -6.2968097536       -2.8031332048
 H        -6.0030809530       -6.2266191219       -4.0309784359
 H        -7.4386424733       -5.2661026076       -4.1549400879
 H        -5.3457166771       -2.4329488665       -0.5651245879
 H        -5.9855687351       -1.3248552142       -1.3481048414
 H        -4.3442182662       -2.0285739328       -1.7813419280
 H        -8.0247012018       -3.3116503883       -1.6179477831
 H        -8.1832394566       -3.5024158221       -3.2379725600
 H        -8.0989065755       -1.8573104138       -2.5845291660
 H        -5.9277597803        1.2722292210       -7.1108705522
 H        -4.0739839898        1.2138329836       -6.9069299520
 H        -4.7801254940        2.5428042740       -7.0383516317
 H        -3.4639829902        2.2182540983       -3.5704065511
 H        -3.4925229368        3.3775792835       -4.9621654283
 H        -2.9024860119        1.7194018422       -5.1181942573
 H        -9.1349596688        5.5283150525       -0.9256180750
 H        -7.4247437415        5.3521618845       -0.4119286466
 H        -8.8662335460        5.4984225396        0.7449521146
 H        -7.1852850371        1.8845053423        0.3290343567
 H        -7.8340824304        2.8849332746        1.6828540628
 H        -6.4170060553        3.4259057371        0.5891930566
 H       -11.6055565360        2.5506594151        6.6931383797
 H       -10.3482346872        3.5235364903        5.9158598375
 H       -10.2994779482        1.7959700752        6.0879608602
 H       -13.3298595596        1.0762086993        5.2997964664
 H       -11.9043785720        0.3093378017        4.7509298295
 H       -13.0582271608        0.9620254441        3.7164465455
 H       -12.9296661412        9.6300394321        6.1235498754
 H       -12.8254185515       10.4152363876        4.5782055612
 H       -11.6590490193        9.0543522303        4.9755957376
 H       -14.9718439757        8.0325384472        6.4444170460
 H       -15.9610062204        8.1034660690        4.9352900068
 H       -15.2841249290        9.3328471858        5.5167077565
 H       -15.0643626442        9.7098305631       -2.8995483360
 H       -14.6279283470       10.5223633427       -1.3725922242
 H       -15.6923734344        9.1537619497       -1.2571270998
 H       -14.9147872649        6.9202658195       -2.4480057683
 H       -13.1366008932        6.8227126746       -3.0141895019
 H       -14.3218056220        7.9361648216       -3.7457530780
 Na      -12.1294092663        5.4608476676        1.8596702746
