117

 C       -11.1446943487        8.0875196512       -2.7462671478
 C       -12.1139827510        9.0425896432       -2.0480969101
 O       -11.8292969374       10.1108448168       -1.6616838727
 C       -13.6747934612        8.6277610556       -1.8153888656
 C       -13.4823793217        8.0512990858       -0.3898783854
 O       -13.0995951446        6.9102180277       -0.3070202700
 C       -13.7705293754        9.0693054248        0.8118615674
 C       -13.1626087612        8.8862309549        2.1628630026
 C       -14.0448441767        8.1009764666        3.0791517377
 O       -15.0085580796        7.4274494769        2.7897551133
 C       -13.7236539595        8.3691693698        4.7161245176
 C       -12.9039555133        6.9810214221        4.7660572746
 O       -11.8915158774        6.8696717136        4.1135893890
 C       -13.5908198217        5.8599753699        5.4258693915
 C       -12.8480367654        4.4481843038        5.5208074630
 C       -12.5347368319        3.7307150464        4.2678905505
 O       -13.0590158646        4.0335828241        3.1658391673
 C       -11.6697352159        2.3648438795        4.3542451385
 C       -10.7005355055        2.4072208543        3.0416248515
 O        -9.7166972099        3.0570451299        3.1932426401
 C       -11.0259491218        1.6681061951        1.8343316616
 C        -9.8857809617        1.8187341185        0.8727894868
 C        -9.8228661235        3.2491003534        0.5486690312
 O       -10.8382089328        3.9956333596        0.7475516637
 C        -8.6075919015        3.7017936819       -0.2704906177
 C        -8.6431076911        2.8939522386       -1.8686548115
 O        -9.2431688909        1.8976126018       -1.8387362969
 C        -7.6124392163        3.4834896349       -2.8595868123
 C        -6.2772400365        2.7353427389       -3.0215053462
 C        -6.1858776962        2.4159801485       -4.5254327957
 O        -6.7662249836        3.0754519827       -5.3026350220
 C        -5.0131111760        1.5314293457       -5.0754444808
 C        -5.2959022502        0.0064960439       -4.6298614395
 O        -5.8464640027       -0.2658561836       -3.5672167322
 C        -4.2967516071       -1.1763355364       -5.0969000256
 C        -4.5832189422       -2.4581004536       -4.3645225200
 C        -6.0586124099       -2.7361050913       -4.1167953312
 O        -6.8658109535       -2.8454928679       -4.9931352695
 C        -6.4411296447       -3.0261912649       -2.6037139154
 C        -5.9083264331       -4.5386224528       -2.5343149572
 O        -4.8333349187       -4.8836320470       -2.0709691245
 C        -6.8003914259       -5.6062934308       -3.1958482113
 C        -5.5759671573       -2.3349608065       -1.5539392053
 C        -8.0409937859       -2.6817181717       -2.3151917113
 C        -5.0469025581        1.6130023263       -6.6205019832
 C        -3.6900611561        1.8924285740       -4.3337185022
 C        -8.6532516865        5.2643387140       -0.4306166779
 C        -7.2834235493        3.2418086797        0.4951683100
 C       -10.5376408406        2.1795126313        5.5543602373
 C       -12.6830525240        1.1713294117        4.2028418176
 C       -12.7181216072        9.5416275894        4.8362366216
 C       -14.8173084175        8.5781649953        5.6813970449
 C       -14.5299129988       10.0998026986       -1.8062330893
 C       -14.4395364472        7.5181684989       -2.6039144277
 H       -10.1996441206        8.5652468283       -3.0354418353
 H       -11.6734913422        7.6275859009       -3.5177241319
 H       -10.8626981799        7.3622467200       -2.0339967820
 H       -14.7867450073        8.9381787527        1.0279708973
 H       -13.7749897638       10.0931803410        0.4547880523
 H       -12.9352790843        9.8892382631        2.5931930628
 H       -12.1722213433        8.4435201787        2.0435969899
 H       -14.4392977339        5.6192155413        4.7734798338
 H       -13.9570287191        5.9898731993        6.4909142885
 H       -13.4959166467        3.7196799493        6.0175271667
 H       -11.9335152481        4.5651718083        6.1834462920
 H       -11.9289480021        2.0528442734        1.4088500060
 H       -11.2653033982        0.6354727245        2.1713418267
 H       -10.0843180340        1.1585815137       -0.0840939682
 H        -8.9933352092        1.5110254545        1.3686557763
 H        -7.2972422952        4.4185711537       -2.7280537740
 H        -8.1295037115        3.5620888990       -3.7241616004
 H        -6.1760552170        1.7796789832       -2.4700420018
 H        -5.4733197877        3.3650908462       -2.6550443869
 H        -3.3406438064       -0.8392205946       -4.7903343776
 H        -4.2401387334       -1.3075473353       -6.2335831912
 H        -3.9164808610       -2.5813283673       -3.4561356891
 H        -4.2115516186       -3.3135477757       -4.9346975103
 H        -6.8593444471       -6.4213552212       -2.5164418151
 H        -6.6195901166       -5.9770686508       -4.1694731360
 H        -7.8972523965       -5.2768376928       -3.3034267377
 H        -5.6248687083       -2.9574782156       -0.6049356637
 H        -5.8525030193       -1.4891599132       -1.0008744182
 H        -4.5319902758       -2.2172183977       -1.6156350065
 H        -8.2906554503       -2.1911744941       -1.3519520137
 H        -8.7592514301       -3.5198450181       -2.3281868321
 H        -8.3346555653       -1.9345626080       -2.9651799878
 H        -6.0923304425        1.6114535900       -6.8085034279
 H        -4.6138322418        0.6918809184       -7.1118534484
 H        -4.5965221737        2.4267776204       -7.2408648906
 H        -3.2110483466        0.9747181681       -3.8340891813
 H        -3.8393647883        2.6825292024       -3.6724373231
 H        -2.9457648291        2.1953531186       -5.0823643497
 H        -9.4983712670        5.6686416434       -1.0216152475
 H        -7.7282184386        5.6624594383       -0.8574285132
 H        -8.7690894423        5.7676683738        0.4791351997
 H        -7.0433779235        2.1525838763        0.4845853649
 H        -7.3921669853        3.7684451061        1.4871802008
 H        -6.4881718304        3.6694111276       -0.0746687819
 H       -10.7231477758        1.6334523404        6.4690137048
 H       -10.2478556449        3.1918800687        5.7723909249
 H        -9.6335930363        1.6174422377        5.3513170697
 H       -13.0856314213        0.9502189123        5.2054813937
 H       -12.4046937862        0.1706998373        3.8884878016
 H       -13.6030142237        1.3387420763        3.5665997224
 H       -12.3096905636        9.7126867732        5.9036525004
 H       -13.2493094035       10.4017348462        4.5861897489
 H       -11.7841630618        9.3616135805        4.2326559251
 H       -14.5920378708        8.2326015711        6.7202876581
 H       -15.7105845347        8.1286331403        5.1665555814
 H       -15.3543514791        9.5209192905        5.8582336981
 H       -14.3366548155       10.4532835665       -2.8089472546
 H       -14.1290756086       10.8029657949       -1.1492508123
 H       -15.6363730530        9.9605361045       -1.6328400407
 H       -15.4901886344        7.5938203711       -2.3642864838
 H       -13.9036158191        6.6149309733       -2.4942556841
 H       -14.2592243141        7.8049907978       -3.6222697543
 Na      -12.4994495704        5.6402738789        1.4702403118
