117

 C       -11.2437992406        7.9402454573       -2.9723390844
 C       -12.1338606029        8.9913094802       -2.2334248701
 O       -11.6321868766       10.0785076193       -1.9938721316
 C       -13.5897003079        8.6782733673       -1.8603953017
 C       -13.5623090264        8.1051410953       -0.4001041578
 O       -13.2755987500        6.9405235426       -0.3354252203
 C       -13.8693147724        9.0749391742        0.7364974202
 C       -13.2003645464        8.9247799930        2.1189167941
 C       -14.1123908448        8.3152073106        3.2126495018
 O       -14.8727979429        7.4255323398        2.8174118009
 C       -13.7203670416        8.3287976472        4.6969386053
 C       -12.9035584061        6.9103349337        4.8007299923
 O       -11.8778687314        6.8008816547        4.1621200226
 C       -13.5732071806        5.6776880051        5.4414461672
 C       -12.6347868741        4.4478998391        5.5386262847
 C       -12.4391687528        3.7327832015        4.2289811966
 O       -12.9763700781        4.0347153711        3.1553824919
 C       -11.6768068603        2.3873613466        4.3444844523
 C       -10.6504709914        2.4442287683        3.0612864317
 O        -9.6972652307        3.1751001913        3.1949759524
 C       -10.9003378267        1.4702494989        1.8835783250
 C        -9.8253661983        1.8267129649        0.9041521756
 C        -9.7907879860        3.3235952871        0.5978516147
 O       -10.6535737123        4.1449666751        1.0603674197
 C        -8.6424078682        3.8296626011       -0.3841610898
 C        -8.6327470467        2.9785770755       -1.6532150342
 O        -9.4081529324        2.0562199354       -1.8685685530
 C        -7.7516916429        3.4882098947       -2.7348331444
 C        -6.4797267661        2.6231942363       -2.9579590161
 C        -6.0092075365        2.4574174530       -4.6087438377
 O        -6.7157695093        3.0510271333       -5.3770385946
 C        -4.9402316248        1.3420943794       -5.0012001012
 C        -5.1201656325       -0.0655180490       -4.4286480612
 O        -5.9986847554       -0.2378583147       -3.5673408701
 C        -4.2310052481       -1.1513468917       -5.0271686407
 C        -4.5988850855       -2.5283188033       -4.5518959891
 C        -6.1673875085       -2.7609355897       -4.0138745891
 O        -7.0370591912       -2.9671692281       -4.8525714939
 C        -6.4808468556       -3.0604028084       -2.4450204158
 C        -6.1822225146       -4.5484396206       -2.3568081183
 O        -5.0240435481       -4.6472959883       -2.0306192471
 C        -6.9217718356       -5.6430353678       -3.0534366439
 C        -5.7161041213       -2.3343278602       -1.3492118335
 C        -7.9516468611       -2.9040390630       -2.2992390452
 C        -4.9121507691        1.4711748852       -6.5419704120
 C        -3.5272028081        1.6906490355       -4.4166158639
 C        -8.6983761186        5.3731532251       -0.6597274376
 C        -7.2859482832        3.5341088807        0.3281058689
 C       -10.7665954172        1.9557368333        5.4254779970
 C       -12.6866380632        1.2984034176        4.2888066584
 C       -12.6373361932        9.6094819119        4.8513385678
 C       -14.7575838087        8.5672670249        5.7537350175
 C       -14.2948782638       10.0629922637       -1.9787797509
 C       -14.4615759215        7.7487491550       -2.6867425518
 H       -10.2791553193        8.4789035293       -3.1743391040
 H       -11.7540656959        7.6589257447       -3.8842611846
 H       -10.8638614159        7.0450387494       -2.3368540379
 H       -14.9452888494        9.2379821380        0.9216809836
 H       -13.5821757603        9.9659346783        0.3309156148
 H       -12.8990527349        9.8813783492        2.3248900000
 H       -12.2534823298        8.3424023228        2.0824008306
 H       -14.4694763626        5.3575328883        4.8580613941
 H       -13.8048872767        5.8031293941        6.5046259915
 H       -12.8059314588        3.7204866620        6.3726831986
 H       -11.6354919250        4.9508157246        5.7397195172
 H       -11.9020413831        1.6086349139        1.3932297146
 H       -10.8382783913        0.4268627786        2.2821565173
 H        -9.7840969832        1.1586395598        0.0846790448
 H        -8.8960276273        1.7635138669        1.5469799988
 H        -7.2820357233        4.4973745614       -2.8427936476
 H        -8.4370675478        3.4894114075       -3.5838264377
 H        -6.6057085686        1.5383021646       -2.6930079924
 H        -5.7073271516        3.0800750559       -2.1543531843
 H        -3.1504869639       -0.9254194314       -4.8847144914
 H        -4.3620265633       -1.0494776685       -6.0868424982
 H        -3.8056155320       -2.8186367356       -3.7937927556
 H        -4.4050351150       -3.2817827712       -5.3237259396
 H        -6.6576221858       -6.5094392629       -2.5675743151
 H        -6.7159188277       -5.7226643457       -4.1634508019
 H        -7.9600235535       -5.5884806846       -3.1019142925
 H        -6.0082363449       -2.6081059129       -0.3623744616
 H        -5.7157406885       -1.2856598882       -1.1412301212
 H        -4.5760586800       -2.4939813235       -1.2977399099
 H        -8.3973055466       -2.3694535541       -1.4309577640
 H        -8.4481293844       -3.8502952642       -2.2976470418
 H        -8.3355441990       -2.2726788656       -3.0789289136
 H        -5.9678984919        1.4440365746       -7.0497317999
 H        -4.2373464562        0.6755256101       -7.0346447006
 H        -4.4951389591        2.3969884553       -6.8548818256
 H        -2.9776862392        0.7570350078       -4.0453599984
 H        -3.6573930157        2.4014134215       -3.5808628477
 H        -2.8477289840        2.1444195931       -5.1451393728
 H        -9.6190885153        5.8671157037       -1.1181714649
 H        -7.8829203238        5.8198569839       -1.1473201691
 H        -8.5762729470        5.8756151881        0.3247984698
 H        -7.1652104964        2.5129684701        0.5448621633
 H        -7.1959888738        4.2225927929        1.1594342536
 H        -6.5399983589        3.7413002640       -0.4129137707
 H       -11.1933944707        1.5711802963        6.3315498820
 H       -10.0476938705        2.7785238645        5.7106680600
 H       -10.2133545652        1.0686701072        5.2712670157
 H       -13.1120987438        1.0074443127        5.3515288253
 H       -12.2376228219        0.3439201456        4.0396571001
 H       -13.5333622608        1.2654695544        3.5484193760
 H       -12.0980699453        9.6335466252        5.8656884221
 H       -13.3007785735       10.5076872518        4.7649819800
 H       -11.7976371926        9.6328456806        4.2184225738
 H       -14.2446832832        8.8081036840        6.8069916705
 H       -15.5814959069        7.8450876239        5.7877670599
 H       -15.4606184626        9.3572241163        5.6101235990
 H       -14.3357811040       10.2000847416       -3.1065915346
 H       -13.6296556571       10.8264925279       -1.5260530243
 H       -15.3316787166       10.0812541856       -1.5560148342
 H       -15.4958078010        8.0166151193       -2.6592965665
 H       -14.1255544372        6.7989714842       -2.4299379822
 H       -14.0103186501        7.8842490298       -3.6678727335
 Na      -12.5741067370        5.6087221971        1.3662815368
