117

 C       -11.4021762179        7.7209296255       -3.2239716834
 C       -12.0156196361        8.9682072144       -2.5235442812
 O       -11.4028603367       10.0312673582       -2.2626310738
 C       -13.6120888221        8.7631213663       -1.9938043065
 C       -13.5939749639        8.2110683978       -0.4124922009
 O       -13.3992264183        6.9890635180       -0.1754241958
 C       -13.9685554031        9.1956703603        0.6655171642
 C       -13.2203766469        8.9477031011        2.0565490118
 C       -14.0637206583        8.2253257717        3.2053729099
 O       -14.9280853674        7.4476542109        2.9062493696
 C       -13.5772578017        8.2919376410        4.6926830598
 C       -12.8996091395        6.9769606957        4.7739358754
 O       -11.8297519748        6.7120618450        4.1949400993
 C       -13.5443235906        5.7379165713        5.4789052746
 C       -12.3745860707        4.6570563737        5.5948361127
 C       -12.3833353231        3.6823595599        4.2504148029
 O       -12.8439703863        4.1132301004        3.2289599733
 C       -11.6709916335        2.2026191407        4.3394013252
 C       -10.6457400697        2.3620535116        3.2033991882
 O        -9.6999630842        3.1675213804        3.2094784460
 C       -10.6788309815        1.4343317313        1.9942888228
 C        -9.7338168204        1.9589102017        0.8715173791
 C        -9.7342860451        3.4891816814        0.6126618245
 O       -10.5117557268        4.2703218886        1.1006696226
 C        -8.5946572183        4.0394831413       -0.3276782199
 C        -8.7174039413        3.1593696100       -1.7631089357
 O        -9.5395952625        2.2117607401       -1.8615129736
 C        -7.7192948174        3.4797757708       -2.9488084179
 C        -6.6012733599        2.3691150223       -3.0858489679
 C        -6.0546083332        2.3437888430       -4.4890900998
 O        -6.5692253906        3.0196528190       -5.3850140615
 C        -4.8050513200        1.4058642899       -4.8163831257
 C        -5.1862996198       -0.0735395147       -4.3554698741
 O        -6.0700760672       -0.3153075643       -3.6045433979
 C        -4.4423833817       -1.2608603090       -4.9481998806
 C        -4.8188358681       -2.7601432498       -4.5098122527
 C        -6.1968145057       -2.7512896793       -3.8744666305
 O        -7.0819348287       -2.9819752578       -4.6879130557
 C        -6.6189560298       -3.0212686297       -2.4153635166
 C        -6.0322433048       -4.6356722384       -2.3949294137
 O        -4.9764511952       -4.8930303005       -1.8580724150
 C        -6.9839524097       -5.6835791728       -2.8837334386
 C        -5.9547538758       -2.1754782227       -1.3380407433
 C        -8.2303697760       -2.8811984422       -2.2608649503
 C        -4.7391693573        1.3015221170       -6.4553399131
 C        -3.2987038228        1.8329917761       -4.4513043474
 C        -8.8918818616        5.4087545513       -0.7107460522
 C        -7.2242928771        3.8382427830        0.2539893452
 C       -10.9079490786        1.9696130610        5.5838309056
 C       -12.8842528998        1.2274975006        4.1599930406
 C       -12.5166017157        9.4898298362        5.0241590562
 C       -14.7170577564        8.4702594057        5.7274096936
 C       -14.2444426834       10.2403267639       -2.1125647628
 C       -14.3695393643        7.8104225100       -2.9758125716
 H       -10.3156100771        7.8580638463       -3.3655881841
 H       -11.9990013366        7.5344793177       -4.2171400010
 H       -11.4026226367        6.8645822221       -2.4731861730
 H       -15.0880323724        9.1104239910        0.8498372888
 H       -13.8205040188       10.2166082102        0.2554231072
 H       -12.8467886900        9.9364429151        2.3227082159
 H       -12.3193130867        8.3644014468        1.8882733417
 H       -14.3476247243        5.1691609347        4.9727672751
 H       -13.7727469720        5.8988135939        6.4960700406
 H       -12.5512004566        4.0323358778        6.5203241658
 H       -11.4363584589        5.1590646258        5.7152964824
 H       -11.6976001932        1.4283474557        1.4603795341
 H       -10.4181218911        0.3823613787        2.2638455084
 H       -10.1781421447        1.5268242629        0.0543712405
 H        -8.7042921353        1.5546498177        0.9607351712
 H        -7.0731260384        4.4428596705       -3.0972548618
 H        -8.3169989601        3.5398109838       -4.0010401781
 H        -6.9385831863        1.3053429512       -2.8558264767
 H        -5.6728695890        2.5440777094       -2.4497469655
 H        -3.3606399261       -0.9936321682       -4.7654658002
 H        -4.4576431990       -1.1651009301       -6.0365184798
 H        -4.0285676002       -3.1400568831       -3.9053014150
 H        -4.8116303826       -3.4440598160       -5.3805471553
 H        -6.5042228682       -6.7033875448       -2.6905572014
 H        -7.1499583802       -5.5464284488       -3.9425040765
 H        -7.9847946897       -5.6661821446       -2.5741276677
 H        -6.2739569049       -2.0097658573       -0.3479297417
 H        -5.6420178847       -1.1075756227       -1.5601497428
 H        -4.9076276683       -2.5060665746       -1.2468486643
 H        -8.4827431116       -2.3118367723       -1.3995962914
 H        -8.6513290930       -3.8592641609       -2.0979443108
 H        -8.8213596827       -2.2610159321       -3.0249462149
 H        -5.5865792436        0.8735830606       -7.0461740021
 H        -3.8297153552        0.7591876827       -6.6860965628
 H        -4.6376731954        2.3378129327       -6.8758396765
 H        -2.7567131488        0.9595384414       -4.3449453031
 H        -3.2689646071        2.3915559478       -3.4272195381
 H        -2.7608074389        2.4550733990       -5.1970153093
 H        -9.7891903341        5.5207109209       -1.2969250115
 H        -8.0612289324        5.8510579285       -1.3770890272
 H        -8.8520219547        6.2398344138        0.0910058966
 H        -7.1569129928        2.8173157874        0.5010501161
 H        -6.9825374629        4.4935831997        1.0077750835
 H        -6.5385476625        3.9720330220       -0.5880070373
 H       -11.5470793685        2.1735493007        6.4556407320
 H        -9.9218572966        2.4056366195        5.7803034876
 H       -10.8301751569        0.9444556536        5.8994570520
 H       -13.5583983227        1.2310838462        5.0123819137
 H       -12.6297744058        0.1119170384        4.1542922224
 H       -13.3997637193        1.2596523765        3.2201964521
 H       -12.2210941152        9.4274883140        6.0115284058
 H       -13.0236031633       10.4945602318        4.8000051980
 H       -11.4937367258        9.3939279729        4.6055407010
 H       -14.4259350976        9.0265057087        6.5450630336
 H       -15.3150683148        7.6244278570        5.9965729869
 H       -15.5724176871        9.0292268708        5.3146429858
 H       -14.6450127061       10.3106850343       -3.1538336663
 H       -13.3844999404       10.9728116490       -1.8667448585
 H       -15.1019853869       10.3827056194       -1.4347262562
 H       -15.4327999112        8.0050032503       -2.9335027999
 H       -14.0059255057        6.8151843614       -2.6409303098
 H       -13.9616848004        7.9085831503       -3.9719101395
 Na      -12.5872893225        5.4972902764        1.4057955830
