117

 C       -11.5637246356        7.3971829185       -3.4648197393
 C       -12.0105231487        8.7928335181       -2.6937904642
 O       -11.2752604880        9.7111162341       -2.6619114695
 C       -13.5877522883        8.9127007180       -1.9782537355
 C       -13.5820515250        8.3430645866       -0.5464858093
 O       -13.3158399624        7.1812232634       -0.3673607891
 C       -14.0320677339        9.2641390071        0.6894797831
 C       -13.2601276287        9.0087939061        1.9589679018
 C       -14.0248049148        8.3246797458        3.0888883184
 O       -15.0478447622        7.6620522620        2.8479903348
 C       -13.3985946476        8.2045013459        4.5535807004
 C       -12.6516118455        6.7561694172        4.5903700140
 O       -11.6276258533        6.8132612777        3.9605427285
 C       -13.0932312198        5.8205627530        5.5913706831
 C       -12.2949684844        4.5305877403        5.7457128509
 C       -12.2786173244        3.7264590642        4.4508128682
 O       -12.7735340882        4.0978446894        3.3698123538
 C       -11.7640040408        2.1941131259        4.4208228320
 C       -10.4748052399        2.3766585426        3.3790257666
 O        -9.5501885419        3.0149104711        3.7942799396
 C       -10.4944993755        1.6338429919        2.1159906966
 C        -9.6644178218        2.1010433527        0.8307557017
 C        -9.7018657887        3.6128237958        0.4303385980
 O       -10.5396348491        4.4305606895        0.9203185977
 C        -8.7109331665        4.1944653455       -0.5345378612
 C        -8.6916150159        3.3640426569       -1.9035849445
 O        -9.6382932401        2.6810228571       -2.0710497169
 C        -7.6101040683        3.5032104897       -2.9902513410
 C        -6.8079865336        2.1731044046       -3.1904531942
 C        -5.9663694609        2.1480487246       -4.6202902951
 O        -6.1954696297        3.0516155129       -5.3499414062
 C        -4.7922508928        1.2414528137       -4.8933370236
 C        -5.0870394795       -0.2450965308       -4.3527695469
 O        -6.1566003276       -0.3893449570       -3.7205680952
 C        -4.4960505146       -1.5427174044       -4.8765267837
 C        -4.9314365244       -2.7218835019       -4.0464300120
 C        -6.4870237598       -2.9199722307       -3.8029046225
 O        -7.3328361286       -2.8616435953       -4.6724489638
 C        -6.7872882784       -3.1862186825       -2.3290411791
 C        -6.3023521764       -4.6293266554       -2.0761597973
 O        -5.1952878753       -4.7973232245       -1.6296242272
 C        -7.1309797849       -5.8118155374       -2.6110515124
 C        -5.9616900914       -2.3100346000       -1.4147096074
 C        -8.3064636896       -3.1596278908       -2.0013782730
 C        -4.5289040384        1.1524056372       -6.3779328216
 C        -3.6338924882        1.9126453579       -4.0384664728
 C        -9.0775322352        5.6335519219       -0.9261375284
 C        -7.2377759411        4.2924188015       -0.0063261280
 C       -11.3128804744        1.7637632119        5.8257796778
 C       -12.8529247568        1.3316790619        3.9343815606
 C       -12.4165439454        9.3134454828        4.9581428486
 C       -14.7538831108        8.3263258624        5.3934993226
 C       -14.0031919551       10.3573121985       -2.2712666190
 C       -14.4073067218        7.9198456910       -2.8836832915
 H       -10.5066275804        7.3210224815       -3.4131542015
 H       -11.8574450644        7.5963252886       -4.4068855034
 H       -11.9023857327        6.4909844507       -3.0501597426
 H       -15.1296738811        9.1895180453        0.7822670404
 H       -13.8408966291       10.2830635203        0.3739470162
 H       -12.7413627868        9.9559490983        2.2076556008
 H       -12.4212770716        8.2713060339        1.7369286004
 H       -14.0224785077        5.4260706652        5.1970421189
 H       -13.1761172105        6.3287502579        6.5985285199
 H       -12.5869644146        3.8245726242        6.4978236128
 H       -11.2189845382        4.7153198456        5.9675216302
 H       -11.4991664685        1.4576381637        1.8781642261
 H        -9.9770497161        0.6976677610        2.3368036197
 H        -9.9590746026        1.5323920681       -0.1475161462
 H        -8.6485518435        1.7947777434        1.0731665939
 H        -6.9433417768        4.2357208162       -2.6030224305
 H        -7.8404677352        3.7673446427       -3.9162190280
 H        -7.5276311841        1.4488071240       -3.1163005068
 H        -6.0362253236        1.9704285827       -2.4800298202
 H        -3.4304053914       -1.4417894831       -4.9945461640
 H        -4.8346638933       -1.7223464095       -5.9294573786
 H        -4.4075235625       -2.6309939337       -3.0410005473
 H        -4.4506443703       -3.5464589676       -4.5738873410
 H        -6.6037109819       -6.5166263063       -3.1821531736
 H        -8.1407633062       -5.5738546043       -3.0890852152
 H        -7.5441291562       -6.3360001553       -1.7150715480
 H        -6.3264746856       -2.3642882732       -0.3852136314
 H        -5.8667951956       -1.2794325120       -1.5651450846
 H        -4.8752258342       -2.4479294658       -1.3606218394
 H        -8.6024355706       -2.4393035921       -1.1782666526
 H        -8.6831129953       -4.1878322481       -1.8680282162
 H        -8.8319062643       -2.7514122544       -2.8019484056
 H        -5.1370227033        0.3309358089       -6.8012307411
 H        -3.5720031747        0.6774692063       -6.5900939935
 H        -4.7515349506        1.9978405282       -6.8987120582
 H        -2.6418057728        1.5773961618       -4.5056545658
 H        -3.6132966405        1.6177152741       -3.0492138964
 H        -3.6274604883        2.9670881962       -4.0980322935
 H       -10.0129699246        5.7039750818       -1.5531255262
 H        -8.3767499760        6.0183740621       -1.5637221954
 H        -9.0698138717        6.3788005991       -0.1913316930
 H        -6.7445997773        3.3223573712        0.2770050007
 H        -7.2285972528        5.0561422186        0.8601090760
 H        -6.7422129311        4.8738816003       -0.7902638798
 H       -12.0031306482        1.8083795653        6.6883197412
 H       -10.4158995619        2.3297584888        6.1425930004
 H       -11.0327823796        0.7000879920        5.9097898204
 H       -13.6705771692        1.4437159179        4.6569549733
 H       -12.6384340737        0.3465956798        3.8952967150
 H       -13.1671603323        1.5123843053        2.9301417851
 H       -12.0850398449        9.2852782515        6.0468104735
 H       -12.7276118538       10.2672461638        4.5981616524
 H       -11.4604376676        9.0938082712        4.5269567288
 H       -14.5517181759        8.5661459032        6.5475096424
 H       -15.3758059952        7.4098713804        5.3352302575
 H       -15.3791504551        9.1613060284        5.1224666712
 H       -14.0679526452       10.5393431719       -3.3219071277
 H       -13.3957608214       10.9797214459       -1.7126905825
 H       -15.0793712160       10.4305817251       -2.0086440008
 H       -15.3762393203        7.9734333438       -2.3549065408
 H       -13.9785867903        6.9343085088       -2.8092229064
 H       -14.4388606343        8.2589678000       -3.9494894291
 Na      -12.4785995127        5.4525577552        1.6207463890
